
#======================================================================
# CRYSTAL DATA
#----------------------------------------------------------------------
data_VESTA_phase_1

_chemical_name_common                  'POSCAR file written by OVITO Basic 3.8'
_cell_length_a                         51.130100
_cell_length_b                         49.200001
_cell_length_c                         24.000000
_cell_angle_alpha                      90.000000
_cell_angle_beta                       90.000000
_cell_angle_gamma                      90.000000
_cell_volume                           60374.423312
_space_group_name_H-M_alt              'P 1'
_space_group_IT_number                 1

loop_
_space_group_symop_operation_xyz
   'x, y, z'

loop_
   _atom_site_label
   _atom_site_occupancy
   _atom_site_fract_x
   _atom_site_fract_y
   _atom_site_fract_z
   _atom_site_adp_type
   _atom_site_U_iso_or_equiv
   _atom_site_type_symbol
   C1         1.0     0.930555     0.925000     0.500000    Uiso  ? C
   C2         1.0     0.930555     0.975000     0.500000    Uiso  ? C
   C3         1.0     0.986111     0.975000     0.500000    Uiso  ? C
   C4         1.0     0.986111     0.925000     0.500000    Uiso  ? C
   C5         1.0     0.972222     0.900000     0.500000    Uiso  ? C
   C6         1.0     0.972222     0.950000     0.500000    Uiso  ? C
   C7         1.0     0.944445     0.900000     0.500000    Uiso  ? C
   C8         1.0     0.944445     0.950000     0.500000    Uiso  ? C
   C9         1.0     0.847222     0.925000     0.500000    Uiso  ? C
   C10        1.0     0.847222     0.975000     0.500000    Uiso  ? C
   C11        1.0     0.819445     0.975000     0.500000    Uiso  ? C
   C12        1.0     0.819445     0.925000     0.500000    Uiso  ? C
   C13        1.0     0.805555     0.900000     0.500000    Uiso  ? C
   C14        1.0     0.805555     0.950000     0.500000    Uiso  ? C
   C15        1.0     0.861111     0.900000     0.500000    Uiso  ? C
   C16        1.0     0.861111     0.950000     0.500000    Uiso  ? C
   C17        1.0     0.763889     0.925000     0.500000    Uiso  ? C
   C18        1.0     0.763889     0.975000     0.500000    Uiso  ? C
   C19        1.0     0.777778     0.900000     0.500000    Uiso  ? C
   C20        1.0     0.777778     0.950000     0.500000    Uiso  ? C
   C21        1.0     0.736111     0.975000     0.500000    Uiso  ? C
   C22        1.0     0.736111     0.925000     0.500000    Uiso  ? C
   C23        1.0     0.722222     0.900000     0.500000    Uiso  ? C
   C24        1.0     0.722222     0.950000     0.500000    Uiso  ? C
   C25        1.0     0.680555     0.925000     0.500000    Uiso  ? C
   C26        1.0     0.680555     0.975000     0.500000    Uiso  ? C
   C27        1.0     0.652778     0.975000     0.500000    Uiso  ? C
   C28        1.0     0.652778     0.925000     0.500000    Uiso  ? C
   C29        1.0     0.638889     0.900000     0.500000    Uiso  ? C
   C30        1.0     0.638889     0.950000     0.500000    Uiso  ? C
   C31        1.0     0.611111     0.900000     0.500000    Uiso  ? C
   C32        1.0     0.694445     0.900000     0.500000    Uiso  ? C
   C33        1.0     0.611111     0.950000     0.500000    Uiso  ? C
   C34        1.0     0.694445     0.950000     0.500000    Uiso  ? C
   C35        1.0     0.513889     0.925000     0.500000    Uiso  ? C
   C36        1.0     0.597222     0.925000     0.500000    Uiso  ? C
   C37        1.0     0.513889     0.975000     0.500000    Uiso  ? C
   C38        1.0     0.597222     0.975000     0.500000    Uiso  ? C
   C39        1.0     0.569444     0.975000     0.500000    Uiso  ? C
   C40        1.0     0.569444     0.925000     0.500000    Uiso  ? C
   C41        1.0     0.555556     0.900000     0.500000    Uiso  ? C
   C42        1.0     0.555556     0.950000     0.500000    Uiso  ? C
   C43        1.0     0.527778     0.900000     0.500000    Uiso  ? C
   C44        1.0     0.527778     0.950000     0.500000    Uiso  ? C
   C45        1.0     0.930555     0.775000     0.500000    Uiso  ? C
   C46        1.0     0.930555     0.825000     0.500000    Uiso  ? C
   C47        1.0     0.930555     0.875000     0.500000    Uiso  ? C
   C48        1.0     0.902778     0.775000     0.500000    Uiso  ? C
   C49        1.0     0.986111     0.775000     0.500000    Uiso  ? C
   C50        1.0     0.986111     0.825000     0.500000    Uiso  ? C
   C51        1.0     0.986111     0.875000     0.500000    Uiso  ? C
   C52        1.0     0.972222     0.750000     0.500000    Uiso  ? C
   C53        1.0     0.972222     0.800000     0.500000    Uiso  ? C
   C54        1.0     0.972222     0.850000     0.500000    Uiso  ? C
   C55        1.0     0.944445     0.750000     0.500000    Uiso  ? C
   C56        1.0     0.944445     0.800000     0.500000    Uiso  ? C
   C57        1.0     0.944445     0.850000     0.500000    Uiso  ? C
   C58        1.0     0.847222     0.775000     0.500000    Uiso  ? C
   C59        1.0     0.847222     0.825000     0.500000    Uiso  ? C
   C60        1.0     0.847222     0.875000     0.500000    Uiso  ? C
   C61        1.0     0.819445     0.775000     0.500000    Uiso  ? C
   C62        1.0     0.819445     0.825000     0.500000    Uiso  ? C
   C63        1.0     0.819445     0.875000     0.500000    Uiso  ? C
   C64        1.0     0.805555     0.750000     0.500000    Uiso  ? C
   C65        1.0     0.888889     0.750000     0.500000    Uiso  ? C
   C66        1.0     0.805555     0.800000     0.500000    Uiso  ? C
   C67        1.0     0.805555     0.850000     0.500000    Uiso  ? C
   C68        1.0     0.861111     0.750000     0.500000    Uiso  ? C
   C69        1.0     0.861111     0.800000     0.500000    Uiso  ? C
   C70        1.0     0.861111     0.850000     0.500000    Uiso  ? C
   C71        1.0     0.763889     0.775000     0.500000    Uiso  ? C
   C72        1.0     0.763889     0.825000     0.500000    Uiso  ? C
   C73        1.0     0.763889     0.875000     0.500000    Uiso  ? C
   C74        1.0     0.777778     0.750000     0.500000    Uiso  ? C
   C75        1.0     0.777778     0.800000     0.500000    Uiso  ? C
   C76        1.0     0.777778     0.850000     0.500000    Uiso  ? C
   C77        1.0     0.736111     0.775000     0.500000    Uiso  ? C
   C78        1.0     0.736111     0.825000     0.500000    Uiso  ? C
   C79        1.0     0.736111     0.875000     0.500000    Uiso  ? C
   C80        1.0     0.722222     0.750000     0.500000    Uiso  ? C
   C81        1.0     0.722222     0.800000     0.500000    Uiso  ? C
   C82        1.0     0.722222     0.850000     0.500000    Uiso  ? C
   C83        1.0     0.680555     0.775000     0.500000    Uiso  ? C
   C84        1.0     0.680555     0.825000     0.500000    Uiso  ? C
   C85        1.0     0.680555     0.875000     0.500000    Uiso  ? C
   C86        1.0     0.611111     0.750000     0.500000    Uiso  ? C
   C87        1.0     0.694445     0.750000     0.500000    Uiso  ? C
   C88        1.0     0.611111     0.800000     0.500000    Uiso  ? C
   C89        1.0     0.694445     0.800000     0.500000    Uiso  ? C
   C90        1.0     0.611111     0.850000     0.500000    Uiso  ? C
   C91        1.0     0.694445     0.850000     0.500000    Uiso  ? C
   C92        1.0     0.513889     0.775000     0.500000    Uiso  ? C
   C93        1.0     0.597222     0.775000     0.500000    Uiso  ? C
   C94        1.0     0.513889     0.825000     0.500000    Uiso  ? C
   C95        1.0     0.597222     0.825000     0.500000    Uiso  ? C
   C96        1.0     0.513889     0.875000     0.500000    Uiso  ? C
   C97        1.0     0.597222     0.875000     0.500000    Uiso  ? C
   C98        1.0     0.569444     0.775000     0.500000    Uiso  ? C
   C99        1.0     0.569444     0.825000     0.500000    Uiso  ? C
   C100       1.0     0.569444     0.875000     0.500000    Uiso  ? C
   C101       1.0     0.555556     0.750000     0.500000    Uiso  ? C
   C102       1.0     0.555556     0.800000     0.500000    Uiso  ? C
   C103       1.0     0.555556     0.850000     0.500000    Uiso  ? C
   C104       1.0     0.527778     0.750000     0.500000    Uiso  ? C
   C105       1.0     0.527778     0.800000     0.500000    Uiso  ? C
   C106       1.0     0.527778     0.850000     0.500000    Uiso  ? C
   C107       1.0     0.930555     0.675000     0.500000    Uiso  ? C
   C108       1.0     0.930555     0.725000     0.500000    Uiso  ? C
   C109       1.0     0.902778     0.675000     0.500000    Uiso  ? C
   C110       1.0     0.986111     0.675000     0.500000    Uiso  ? C
   C111       1.0     0.902778     0.725000     0.500000    Uiso  ? C
   C112       1.0     0.986111     0.725000     0.500000    Uiso  ? C
   C113       1.0     0.972222     0.650000     0.500000    Uiso  ? C
   C114       1.0     0.972222     0.700000     0.500000    Uiso  ? C
   C115       1.0     0.944445     0.650000     0.500000    Uiso  ? C
   C116       1.0     0.944445     0.700000     0.500000    Uiso  ? C
   C117       1.0     0.847222     0.675000     0.500000    Uiso  ? C
   C118       1.0     0.847222     0.725000     0.500000    Uiso  ? C
   C119       1.0     0.819445     0.675000     0.500000    Uiso  ? C
   C120       1.0     0.819445     0.725000     0.500000    Uiso  ? C
   C121       1.0     0.805555     0.650000     0.500000    Uiso  ? C
   C122       1.0     0.888889     0.650000     0.500000    Uiso  ? C
   C123       1.0     0.805555     0.700000     0.500000    Uiso  ? C
   C124       1.0     0.888889     0.700000     0.500000    Uiso  ? C
   C125       1.0     0.861111     0.650000     0.500000    Uiso  ? C
   C126       1.0     0.861111     0.700000     0.500000    Uiso  ? C
   C127       1.0     0.763889     0.675000     0.500000    Uiso  ? C
   C128       1.0     0.763889     0.725000     0.500000    Uiso  ? C
   C129       1.0     0.777778     0.650000     0.500000    Uiso  ? C
   C130       1.0     0.777778     0.700000     0.500000    Uiso  ? C
   C131       1.0     0.736111     0.675000     0.500000    Uiso  ? C
   C132       1.0     0.736111     0.725000     0.500000    Uiso  ? C
   C133       1.0     0.722222     0.650000     0.500000    Uiso  ? C
   C134       1.0     0.722222     0.700000     0.500000    Uiso  ? C
   C135       1.0     0.680555     0.675000     0.500000    Uiso  ? C
   C136       1.0     0.680555     0.725000     0.500000    Uiso  ? C
   C137       1.0     0.611111     0.650000     0.500000    Uiso  ? C
   C138       1.0     0.694445     0.650000     0.500000    Uiso  ? C
   C139       1.0     0.611111     0.700000     0.500000    Uiso  ? C
   C140       1.0     0.694445     0.700000     0.500000    Uiso  ? C
   C141       1.0     0.513889     0.675000     0.500000    Uiso  ? C
   C142       1.0     0.597222     0.675000     0.500000    Uiso  ? C
   C143       1.0     0.513889     0.725000     0.500000    Uiso  ? C
   C144       1.0     0.597222     0.725000     0.500000    Uiso  ? C
   C145       1.0     0.569444     0.675000     0.500000    Uiso  ? C
   C146       1.0     0.569444     0.725000     0.500000    Uiso  ? C
   C147       1.0     0.555556     0.650000     0.500000    Uiso  ? C
   C148       1.0     0.555556     0.700000     0.500000    Uiso  ? C
   C149       1.0     0.527778     0.650000     0.500000    Uiso  ? C
   C150       1.0     0.527778     0.700000     0.500000    Uiso  ? C
   C151       1.0     0.930555     0.525000     0.500000    Uiso  ? C
   C152       1.0     0.930555     0.575000     0.500000    Uiso  ? C
   C153       1.0     0.930555     0.625000     0.500000    Uiso  ? C
   C154       1.0     0.986111     0.525000     0.500000    Uiso  ? C
   C155       1.0     0.986111     0.575000     0.500000    Uiso  ? C
   C156       1.0     0.902778     0.625000     0.500000    Uiso  ? C
   C157       1.0     0.986111     0.625000     0.500000    Uiso  ? C
   C158       1.0     0.972222     0.500000     0.500000    Uiso  ? C
   C159       1.0     0.972222     0.550000     0.500000    Uiso  ? C
   C160       1.0     0.972222     0.600000     0.500000    Uiso  ? C
   C161       1.0     0.944445     0.500000     0.500000    Uiso  ? C
   C162       1.0     0.944445     0.550000     0.500000    Uiso  ? C
   C163       1.0     0.944445     0.600000     0.500000    Uiso  ? C
   C164       1.0     0.847222     0.525000     0.500000    Uiso  ? C
   C165       1.0     0.847222     0.575000     0.500000    Uiso  ? C
   C166       1.0     0.847222     0.625000     0.500000    Uiso  ? C
   C167       1.0     0.819445     0.525000     0.500000    Uiso  ? C
   C168       1.0     0.819445     0.575000     0.500000    Uiso  ? C
   C169       1.0     0.819445     0.625000     0.500000    Uiso  ? C
   C170       1.0     0.805555     0.500000     0.500000    Uiso  ? C
   C171       1.0     0.805555     0.550000     0.500000    Uiso  ? C
   C172       1.0     0.805555     0.600000     0.500000    Uiso  ? C
   C173       1.0     0.888889     0.600000     0.500000    Uiso  ? C
   C174       1.0     0.861111     0.500000     0.500000    Uiso  ? C
   C175       1.0     0.861111     0.550000     0.500000    Uiso  ? C
   C176       1.0     0.861111     0.600000     0.500000    Uiso  ? C
   C177       1.0     0.763889     0.525000     0.500000    Uiso  ? C
   C178       1.0     0.763889     0.575000     0.500000    Uiso  ? C
   C179       1.0     0.763889     0.625000     0.500000    Uiso  ? C
   C180       1.0     0.777778     0.500000     0.500000    Uiso  ? C
   C181       1.0     0.777778     0.550000     0.500000    Uiso  ? C
   C182       1.0     0.777778     0.600000     0.500000    Uiso  ? C
   C183       1.0     0.736111     0.525000     0.500000    Uiso  ? C
   C184       1.0     0.736111     0.575000     0.500000    Uiso  ? C
   C185       1.0     0.736111     0.625000     0.500000    Uiso  ? C
   C186       1.0     0.722222     0.500000     0.500000    Uiso  ? C
   C187       1.0     0.722222     0.550000     0.500000    Uiso  ? C
   C188       1.0     0.722222     0.600000     0.500000    Uiso  ? C
   C189       1.0     0.680555     0.525000     0.500000    Uiso  ? C
   C190       1.0     0.680555     0.575000     0.500000    Uiso  ? C
   C191       1.0     0.680555     0.625000     0.500000    Uiso  ? C
   C192       1.0     0.652778     0.525000     0.500000    Uiso  ? C
   C193       1.0     0.652778     0.575000     0.500000    Uiso  ? C
   C194       1.0     0.638889     0.500000     0.500000    Uiso  ? C
   C195       1.0     0.638889     0.550000     0.500000    Uiso  ? C
   C196       1.0     0.611111     0.500000     0.500000    Uiso  ? C
   C197       1.0     0.694445     0.500000     0.500000    Uiso  ? C
   C198       1.0     0.611111     0.550000     0.500000    Uiso  ? C
   C199       1.0     0.694445     0.550000     0.500000    Uiso  ? C
   C200       1.0     0.611111     0.600000     0.500000    Uiso  ? C
   C201       1.0     0.694445     0.600000     0.500000    Uiso  ? C
   C202       1.0     0.513889     0.525000     0.500000    Uiso  ? C
   C203       1.0     0.597222     0.525000     0.500000    Uiso  ? C
   C204       1.0     0.513889     0.575000     0.500000    Uiso  ? C
   C205       1.0     0.597222     0.575000     0.500000    Uiso  ? C
   C206       1.0     0.513889     0.625000     0.500000    Uiso  ? C
   C207       1.0     0.597222     0.625000     0.500000    Uiso  ? C
   C208       1.0     0.569444     0.525000     0.500000    Uiso  ? C
   C209       1.0     0.569444     0.575000     0.500000    Uiso  ? C
   C210       1.0     0.569444     0.625000     0.500000    Uiso  ? C
   C211       1.0     0.555556     0.500000     0.500000    Uiso  ? C
   C212       1.0     0.555556     0.550000     0.500000    Uiso  ? C
   C213       1.0     0.555556     0.600000     0.500000    Uiso  ? C
   C214       1.0     0.527778     0.500000     0.500000    Uiso  ? C
   C215       1.0     0.527778     0.550000     0.500000    Uiso  ? C
   C216       1.0     0.527778     0.600000     0.500000    Uiso  ? C
   C217       1.0     0.930555     0.425000     0.500000    Uiso  ? C
   C218       1.0     0.930555     0.475000     0.500000    Uiso  ? C
   C219       1.0     0.986111     0.475000     0.500000    Uiso  ? C
   C220       1.0     0.986111     0.425000     0.500000    Uiso  ? C
   C221       1.0     0.972222     0.400000     0.500000    Uiso  ? C
   C222       1.0     0.972222     0.450000     0.500000    Uiso  ? C
   C223       1.0     0.944445     0.400000     0.500000    Uiso  ? C
   C224       1.0     0.944445     0.450000     0.500000    Uiso  ? C
   C225       1.0     0.847222     0.425000     0.500000    Uiso  ? C
   C226       1.0     0.847222     0.475000     0.500000    Uiso  ? C
   C227       1.0     0.819445     0.475000     0.500000    Uiso  ? C
   C228       1.0     0.819445     0.425000     0.500000    Uiso  ? C
   C229       1.0     0.805555     0.400000     0.500000    Uiso  ? C
   C230       1.0     0.805555     0.450000     0.500000    Uiso  ? C
   C231       1.0     0.861111     0.400000     0.500000    Uiso  ? C
   C232       1.0     0.861111     0.450000     0.500000    Uiso  ? C
   C233       1.0     0.763889     0.425000     0.500000    Uiso  ? C
   C234       1.0     0.763889     0.475000     0.500000    Uiso  ? C
   C235       1.0     0.777778     0.400000     0.500000    Uiso  ? C
   C236       1.0     0.777778     0.450000     0.500000    Uiso  ? C
   C237       1.0     0.736111     0.475000     0.500000    Uiso  ? C
   C238       1.0     0.736111     0.425000     0.500000    Uiso  ? C
   C239       1.0     0.722222     0.400000     0.500000    Uiso  ? C
   C240       1.0     0.722222     0.450000     0.500000    Uiso  ? C
   C241       1.0     0.680555     0.425000     0.500000    Uiso  ? C
   C242       1.0     0.680555     0.475000     0.500000    Uiso  ? C
   C243       1.0     0.652778     0.475000     0.500000    Uiso  ? C
   C244       1.0     0.652778     0.425000     0.500000    Uiso  ? C
   C245       1.0     0.638889     0.400000     0.500000    Uiso  ? C
   C246       1.0     0.638889     0.450000     0.500000    Uiso  ? C
   C247       1.0     0.611111     0.400000     0.500000    Uiso  ? C
   C248       1.0     0.694445     0.400000     0.500000    Uiso  ? C
   C249       1.0     0.611111     0.450000     0.500000    Uiso  ? C
   C250       1.0     0.694445     0.450000     0.500000    Uiso  ? C
   C251       1.0     0.513889     0.425000     0.500000    Uiso  ? C
   C252       1.0     0.597222     0.425000     0.500000    Uiso  ? C
   C253       1.0     0.513889     0.475000     0.500000    Uiso  ? C
   C254       1.0     0.597222     0.475000     0.500000    Uiso  ? C
   C255       1.0     0.569444     0.475000     0.500000    Uiso  ? C
   C256       1.0     0.569444     0.425000     0.500000    Uiso  ? C
   C257       1.0     0.555556     0.400000     0.500000    Uiso  ? C
   C258       1.0     0.555556     0.450000     0.500000    Uiso  ? C
   C259       1.0     0.527778     0.400000     0.500000    Uiso  ? C
   C260       1.0     0.527778     0.450000     0.500000    Uiso  ? C
   C261       1.0     0.930555     0.275000     0.500000    Uiso  ? C
   C262       1.0     0.930555     0.325000     0.500000    Uiso  ? C
   C263       1.0     0.930555     0.375000     0.500000    Uiso  ? C
   C264       1.0     0.902778     0.275000     0.500000    Uiso  ? C
   C265       1.0     0.986111     0.275000     0.500000    Uiso  ? C
   C266       1.0     0.986111     0.325000     0.500000    Uiso  ? C
   C267       1.0     0.986111     0.375000     0.500000    Uiso  ? C
   C268       1.0     0.972222     0.250000     0.500000    Uiso  ? C
   C269       1.0     0.972222     0.300000     0.500000    Uiso  ? C
   C270       1.0     0.972222     0.350000     0.500000    Uiso  ? C
   C271       1.0     0.944445     0.250000     0.500000    Uiso  ? C
   C272       1.0     0.944445     0.300000     0.500000    Uiso  ? C
   C273       1.0     0.944445     0.350000     0.500000    Uiso  ? C
   C274       1.0     0.847222     0.275000     0.500000    Uiso  ? C
   C275       1.0     0.847222     0.325000     0.500000    Uiso  ? C
   C276       1.0     0.847222     0.375000     0.500000    Uiso  ? C
   C277       1.0     0.819445     0.275000     0.500000    Uiso  ? C
   C278       1.0     0.819445     0.325000     0.500000    Uiso  ? C
   C279       1.0     0.819445     0.375000     0.500000    Uiso  ? C
   C280       1.0     0.805555     0.250000     0.500000    Uiso  ? C
   C281       1.0     0.888889     0.250000     0.500000    Uiso  ? C
   C282       1.0     0.805555     0.300000     0.500000    Uiso  ? C
   C283       1.0     0.805555     0.350000     0.500000    Uiso  ? C
   C284       1.0     0.861111     0.250000     0.500000    Uiso  ? C
   C285       1.0     0.861111     0.300000     0.500000    Uiso  ? C
   C286       1.0     0.861111     0.350000     0.500000    Uiso  ? C
   C287       1.0     0.763889     0.275000     0.500000    Uiso  ? C
   C288       1.0     0.763889     0.325000     0.500000    Uiso  ? C
   C289       1.0     0.763889     0.375000     0.500000    Uiso  ? C
   C290       1.0     0.777778     0.250000     0.500000    Uiso  ? C
   C291       1.0     0.777778     0.300000     0.500000    Uiso  ? C
   C292       1.0     0.777778     0.350000     0.500000    Uiso  ? C
   C293       1.0     0.736111     0.275000     0.500000    Uiso  ? C
   C294       1.0     0.736111     0.325000     0.500000    Uiso  ? C
   C295       1.0     0.736111     0.375000     0.500000    Uiso  ? C
   C296       1.0     0.722222     0.250000     0.500000    Uiso  ? C
   C297       1.0     0.722222     0.300000     0.500000    Uiso  ? C
   C298       1.0     0.722222     0.350000     0.500000    Uiso  ? C
   C299       1.0     0.680555     0.275000     0.500000    Uiso  ? C
   C300       1.0     0.680555     0.325000     0.500000    Uiso  ? C
   C301       1.0     0.680555     0.375000     0.500000    Uiso  ? C
   C302       1.0     0.611111     0.250000     0.500000    Uiso  ? C
   C303       1.0     0.694445     0.250000     0.500000    Uiso  ? C
   C304       1.0     0.611111     0.300000     0.500000    Uiso  ? C
   C305       1.0     0.694445     0.300000     0.500000    Uiso  ? C
   C306       1.0     0.611111     0.350000     0.500000    Uiso  ? C
   C307       1.0     0.694445     0.350000     0.500000    Uiso  ? C
   C308       1.0     0.513889     0.275000     0.500000    Uiso  ? C
   C309       1.0     0.597222     0.275000     0.500000    Uiso  ? C
   C310       1.0     0.513889     0.325000     0.500000    Uiso  ? C
   C311       1.0     0.597222     0.325000     0.500000    Uiso  ? C
   C312       1.0     0.513889     0.375000     0.500000    Uiso  ? C
   C313       1.0     0.597222     0.375000     0.500000    Uiso  ? C
   C314       1.0     0.569444     0.275000     0.500000    Uiso  ? C
   C315       1.0     0.569444     0.325000     0.500000    Uiso  ? C
   C316       1.0     0.569444     0.375000     0.500000    Uiso  ? C
   C317       1.0     0.555556     0.250000     0.500000    Uiso  ? C
   C318       1.0     0.555556     0.300000     0.500000    Uiso  ? C
   C319       1.0     0.555556     0.350000     0.500000    Uiso  ? C
   C320       1.0     0.527778     0.250000     0.500000    Uiso  ? C
   C321       1.0     0.527778     0.300000     0.500000    Uiso  ? C
   C322       1.0     0.527778     0.350000     0.500000    Uiso  ? C
   C323       1.0     0.930555     0.175000     0.500000    Uiso  ? C
   C324       1.0     0.930555     0.225000     0.500000    Uiso  ? C
   C325       1.0     0.902778     0.175000     0.500000    Uiso  ? C
   C326       1.0     0.986111     0.175000     0.500000    Uiso  ? C
   C327       1.0     0.902778     0.225000     0.500000    Uiso  ? C
   C328       1.0     0.986111     0.225000     0.500000    Uiso  ? C
   C329       1.0     0.972222     0.150000     0.500000    Uiso  ? C
   C330       1.0     0.972222     0.200000     0.500000    Uiso  ? C
   C331       1.0     0.944445     0.150000     0.500000    Uiso  ? C
   C332       1.0     0.944445     0.200000     0.500000    Uiso  ? C
   C333       1.0     0.847222     0.175000     0.500000    Uiso  ? C
   C334       1.0     0.847222     0.225000     0.500000    Uiso  ? C
   C335       1.0     0.819445     0.175000     0.500000    Uiso  ? C
   C336       1.0     0.819445     0.225000     0.500000    Uiso  ? C
   C337       1.0     0.805555     0.150000     0.500000    Uiso  ? C
   C338       1.0     0.888889     0.150000     0.500000    Uiso  ? C
   C339       1.0     0.805555     0.200000     0.500000    Uiso  ? C
   C340       1.0     0.888889     0.200000     0.500000    Uiso  ? C
   C341       1.0     0.861111     0.150000     0.500000    Uiso  ? C
   C342       1.0     0.861111     0.200000     0.500000    Uiso  ? C
   C343       1.0     0.763889     0.175000     0.500000    Uiso  ? C
   C344       1.0     0.763889     0.225000     0.500000    Uiso  ? C
   C345       1.0     0.777778     0.150000     0.500000    Uiso  ? C
   C346       1.0     0.777778     0.200000     0.500000    Uiso  ? C
   C347       1.0     0.736111     0.175000     0.500000    Uiso  ? C
   C348       1.0     0.736111     0.225000     0.500000    Uiso  ? C
   C349       1.0     0.722222     0.150000     0.500000    Uiso  ? C
   C350       1.0     0.722222     0.200000     0.500000    Uiso  ? C
   C351       1.0     0.680555     0.175000     0.500000    Uiso  ? C
   C352       1.0     0.680555     0.225000     0.500000    Uiso  ? C
   C353       1.0     0.611111     0.150000     0.500000    Uiso  ? C
   C354       1.0     0.694445     0.150000     0.500000    Uiso  ? C
   C355       1.0     0.611111     0.200000     0.500000    Uiso  ? C
   C356       1.0     0.694445     0.200000     0.500000    Uiso  ? C
   C357       1.0     0.513889     0.175000     0.500000    Uiso  ? C
   C358       1.0     0.597222     0.175000     0.500000    Uiso  ? C
   C359       1.0     0.513889     0.225000     0.500000    Uiso  ? C
   C360       1.0     0.597222     0.225000     0.500000    Uiso  ? C
   C361       1.0     0.569444     0.175000     0.500000    Uiso  ? C
   C362       1.0     0.569444     0.225000     0.500000    Uiso  ? C
   C363       1.0     0.555556     0.150000     0.500000    Uiso  ? C
   C364       1.0     0.555556     0.200000     0.500000    Uiso  ? C
   C365       1.0     0.527778     0.150000     0.500000    Uiso  ? C
   C366       1.0     0.527778     0.200000     0.500000    Uiso  ? C
   C367       1.0     0.930555     0.025000     0.500000    Uiso  ? C
   C368       1.0     0.930555     0.075000     0.500000    Uiso  ? C
   C369       1.0     0.930555     0.125000     0.500000    Uiso  ? C
   C370       1.0     0.986111     0.025000     0.500000    Uiso  ? C
   C371       1.0     0.986111     0.075000     0.500000    Uiso  ? C
   C372       1.0     0.902778     0.125000     0.500000    Uiso  ? C
   C373       1.0     0.986111     0.125000     0.500000    Uiso  ? C
   C374       1.0     0.972222     0.000000     0.500000    Uiso  ? C
   C375       1.0     0.972222     0.050000     0.500000    Uiso  ? C
   C376       1.0     0.972222     0.100000     0.500000    Uiso  ? C
   C377       1.0     0.944445     0.000000     0.500000    Uiso  ? C
   C378       1.0     0.944445     0.050000     0.500000    Uiso  ? C
   C379       1.0     0.944445     0.100000     0.500000    Uiso  ? C
   C380       1.0     0.847222     0.025000     0.500000    Uiso  ? C
   C381       1.0     0.847222     0.075000     0.500000    Uiso  ? C
   C382       1.0     0.847222     0.125000     0.500000    Uiso  ? C
   C383       1.0     0.819445     0.025000     0.500000    Uiso  ? C
   C384       1.0     0.819445     0.075000     0.500000    Uiso  ? C
   C385       1.0     0.819445     0.125000     0.500000    Uiso  ? C
   C386       1.0     0.805555     0.000000     0.500000    Uiso  ? C
   C387       1.0     0.805555     0.050000     0.500000    Uiso  ? C
   C388       1.0     0.805555     0.100000     0.500000    Uiso  ? C
   C389       1.0     0.888889     0.100000     0.500000    Uiso  ? C
   C390       1.0     0.861111     0.000000     0.500000    Uiso  ? C
   C391       1.0     0.861111     0.050000     0.500000    Uiso  ? C
   C392       1.0     0.861111     0.100000     0.500000    Uiso  ? C
   C393       1.0     0.763889     0.025000     0.500000    Uiso  ? C
   C394       1.0     0.763889     0.075000     0.500000    Uiso  ? C
   C395       1.0     0.763889     0.125000     0.500000    Uiso  ? C
   C396       1.0     0.777778     0.000000     0.500000    Uiso  ? C
   C397       1.0     0.777778     0.050000     0.500000    Uiso  ? C
   C398       1.0     0.777778     0.100000     0.500000    Uiso  ? C
   C399       1.0     0.736111     0.025000     0.500000    Uiso  ? C
   C400       1.0     0.736111     0.075000     0.500000    Uiso  ? C
   C401       1.0     0.736111     0.125000     0.500000    Uiso  ? C
   C402       1.0     0.722222     0.000000     0.500000    Uiso  ? C
   C403       1.0     0.722222     0.050000     0.500000    Uiso  ? C
   C404       1.0     0.722222     0.100000     0.500000    Uiso  ? C
   C405       1.0     0.680555     0.025000     0.500000    Uiso  ? C
   C406       1.0     0.680555     0.075000     0.500000    Uiso  ? C
   C407       1.0     0.680555     0.125000     0.500000    Uiso  ? C
   C408       1.0     0.652778     0.025000     0.500000    Uiso  ? C
   C409       1.0     0.652778     0.075000     0.500000    Uiso  ? C
   C410       1.0     0.638889     0.000000     0.500000    Uiso  ? C
   C411       1.0     0.638889     0.050000     0.500000    Uiso  ? C
   C412       1.0     0.611111     0.000000     0.500000    Uiso  ? C
   C413       1.0     0.694445     0.000000     0.500000    Uiso  ? C
   C414       1.0     0.611111     0.050000     0.500000    Uiso  ? C
   C415       1.0     0.694445     0.050000     0.500000    Uiso  ? C
   C416       1.0     0.611111     0.100000     0.500000    Uiso  ? C
   C417       1.0     0.694445     0.100000     0.500000    Uiso  ? C
   C418       1.0     0.513889     0.025000     0.500000    Uiso  ? C
   C419       1.0     0.597222     0.025000     0.500000    Uiso  ? C
   C420       1.0     0.513889     0.075000     0.500000    Uiso  ? C
   C421       1.0     0.597222     0.075000     0.500000    Uiso  ? C
   C422       1.0     0.513889     0.125000     0.500000    Uiso  ? C
   C423       1.0     0.597222     0.125000     0.500000    Uiso  ? C
   C424       1.0     0.569444     0.025000     0.500000    Uiso  ? C
   C425       1.0     0.569444     0.075000     0.500000    Uiso  ? C
   C426       1.0     0.569444     0.125000     0.500000    Uiso  ? C
   C427       1.0     0.555556     0.000000     0.500000    Uiso  ? C
   C428       1.0     0.555556     0.050000     0.500000    Uiso  ? C
   C429       1.0     0.555556     0.100000     0.500000    Uiso  ? C
   C430       1.0     0.527778     0.000000     0.500000    Uiso  ? C
   C431       1.0     0.527778     0.050000     0.500000    Uiso  ? C
   C432       1.0     0.527778     0.100000     0.500000    Uiso  ? C
   C433       1.0     0.430555     0.925000     0.500000    Uiso  ? C
   C434       1.0     0.430555     0.975000     0.500000    Uiso  ? C
   C435       1.0     0.486111     0.975000     0.500000    Uiso  ? C
   C436       1.0     0.486111     0.925000     0.500000    Uiso  ? C
   C437       1.0     0.472222     0.900000     0.500000    Uiso  ? C
   C438       1.0     0.472222     0.950000     0.500000    Uiso  ? C
   C439       1.0     0.444445     0.900000     0.500000    Uiso  ? C
   C440       1.0     0.444445     0.950000     0.500000    Uiso  ? C
   C441       1.0     0.347222     0.925000     0.500000    Uiso  ? C
   C442       1.0     0.347222     0.975000     0.500000    Uiso  ? C
   C443       1.0     0.319445     0.975000     0.500000    Uiso  ? C
   C444       1.0     0.319445     0.925000     0.500000    Uiso  ? C
   C445       1.0     0.305555     0.900000     0.500000    Uiso  ? C
   C446       1.0     0.305555     0.950000     0.500000    Uiso  ? C
   C447       1.0     0.361111     0.900000     0.500000    Uiso  ? C
   C448       1.0     0.361111     0.950000     0.500000    Uiso  ? C
   C449       1.0     0.263889     0.925000     0.500000    Uiso  ? C
   C450       1.0     0.263889     0.975000     0.500000    Uiso  ? C
   C451       1.0     0.277778     0.900000     0.500000    Uiso  ? C
   C452       1.0     0.277778     0.950000     0.500000    Uiso  ? C
   C453       1.0     0.236111     0.975000     0.500000    Uiso  ? C
   C454       1.0     0.236111     0.925000     0.500000    Uiso  ? C
   C455       1.0     0.222222     0.900000     0.500000    Uiso  ? C
   C456       1.0     0.222222     0.950000     0.500000    Uiso  ? C
   C457       1.0     0.180555     0.925000     0.500000    Uiso  ? C
   C458       1.0     0.180555     0.975000     0.500000    Uiso  ? C
   C459       1.0     0.152778     0.975000     0.500000    Uiso  ? C
   C460       1.0     0.152778     0.925000     0.500000    Uiso  ? C
   C461       1.0     0.138889     0.900000     0.500000    Uiso  ? C
   C462       1.0     0.138889     0.950000     0.500000    Uiso  ? C
   C463       1.0     0.111111     0.900000     0.500000    Uiso  ? C
   C464       1.0     0.194445     0.900000     0.500000    Uiso  ? C
   C465       1.0     0.111111     0.950000     0.500000    Uiso  ? C
   C466       1.0     0.194445     0.950000     0.500000    Uiso  ? C
   C467       1.0     0.013889     0.925000     0.500000    Uiso  ? C
   C468       1.0     0.097222     0.925000     0.500000    Uiso  ? C
   C469       1.0     0.013889     0.975000     0.500000    Uiso  ? C
   C470       1.0     0.097222     0.975000     0.500000    Uiso  ? C
   C471       1.0     0.069444     0.975000     0.500000    Uiso  ? C
   C472       1.0     0.069444     0.925000     0.500000    Uiso  ? C
   C473       1.0     0.055556     0.900000     0.500000    Uiso  ? C
   C474       1.0     0.055556     0.950000     0.500000    Uiso  ? C
   C475       1.0     0.027778     0.900000     0.500000    Uiso  ? C
   C476       1.0     0.027778     0.950000     0.500000    Uiso  ? C
   C477       1.0     0.430555     0.775000     0.500000    Uiso  ? C
   C478       1.0     0.430555     0.825000     0.500000    Uiso  ? C
   C479       1.0     0.430555     0.875000     0.500000    Uiso  ? C
   C480       1.0     0.402778     0.775000     0.500000    Uiso  ? C
   C481       1.0     0.486111     0.775000     0.500000    Uiso  ? C
   C482       1.0     0.486111     0.825000     0.500000    Uiso  ? C
   C483       1.0     0.486111     0.875000     0.500000    Uiso  ? C
   C484       1.0     0.472222     0.750000     0.500000    Uiso  ? C
   C485       1.0     0.472222     0.800000     0.500000    Uiso  ? C
   C486       1.0     0.472222     0.850000     0.500000    Uiso  ? C
   C487       1.0     0.444445     0.750000     0.500000    Uiso  ? C
   C488       1.0     0.444445     0.800000     0.500000    Uiso  ? C
   C489       1.0     0.444445     0.850000     0.500000    Uiso  ? C
   C490       1.0     0.347222     0.775000     0.500000    Uiso  ? C
   C491       1.0     0.347222     0.825000     0.500000    Uiso  ? C
   C492       1.0     0.347222     0.875000     0.500000    Uiso  ? C
   C493       1.0     0.319445     0.775000     0.500000    Uiso  ? C
   C494       1.0     0.319445     0.825000     0.500000    Uiso  ? C
   C495       1.0     0.319445     0.875000     0.500000    Uiso  ? C
   C496       1.0     0.305555     0.750000     0.500000    Uiso  ? C
   C497       1.0     0.388889     0.750000     0.500000    Uiso  ? C
   C498       1.0     0.305555     0.800000     0.500000    Uiso  ? C
   C499       1.0     0.305555     0.850000     0.500000    Uiso  ? C
   C500       1.0     0.361111     0.750000     0.500000    Uiso  ? C
   C501       1.0     0.361111     0.800000     0.500000    Uiso  ? C
   C502       1.0     0.361111     0.850000     0.500000    Uiso  ? C
   C503       1.0     0.263889     0.775000     0.500000    Uiso  ? C
   C504       1.0     0.263889     0.825000     0.500000    Uiso  ? C
   C505       1.0     0.263889     0.875000     0.500000    Uiso  ? C
   C506       1.0     0.277778     0.750000     0.500000    Uiso  ? C
   C507       1.0     0.277778     0.800000     0.500000    Uiso  ? C
   C508       1.0     0.277778     0.850000     0.500000    Uiso  ? C
   C509       1.0     0.236111     0.775000     0.500000    Uiso  ? C
   C510       1.0     0.236111     0.825000     0.500000    Uiso  ? C
   C511       1.0     0.236111     0.875000     0.500000    Uiso  ? C
   C512       1.0     0.222222     0.750000     0.500000    Uiso  ? C
   C513       1.0     0.222222     0.800000     0.500000    Uiso  ? C
   C514       1.0     0.222222     0.850000     0.500000    Uiso  ? C
   C515       1.0     0.180555     0.775000     0.500000    Uiso  ? C
   C516       1.0     0.180555     0.825000     0.500000    Uiso  ? C
   C517       1.0     0.180555     0.875000     0.500000    Uiso  ? C
   C518       1.0     0.111111     0.750000     0.500000    Uiso  ? C
   C519       1.0     0.194445     0.750000     0.500000    Uiso  ? C
   C520       1.0     0.111111     0.800000     0.500000    Uiso  ? C
   C521       1.0     0.194445     0.800000     0.500000    Uiso  ? C
   C522       1.0     0.111111     0.850000     0.500000    Uiso  ? C
   C523       1.0     0.194445     0.850000     0.500000    Uiso  ? C
   C524       1.0     0.013889     0.775000     0.500000    Uiso  ? C
   C525       1.0     0.097222     0.775000     0.500000    Uiso  ? C
   C526       1.0     0.013889     0.825000     0.500000    Uiso  ? C
   C527       1.0     0.097222     0.825000     0.500000    Uiso  ? C
   C528       1.0     0.013889     0.875000     0.500000    Uiso  ? C
   C529       1.0     0.097222     0.875000     0.500000    Uiso  ? C
   C530       1.0     0.069444     0.775000     0.500000    Uiso  ? C
   C531       1.0     0.069444     0.825000     0.500000    Uiso  ? C
   C532       1.0     0.069444     0.875000     0.500000    Uiso  ? C
   C533       1.0     0.055556     0.750000     0.500000    Uiso  ? C
   C534       1.0     0.055556     0.800000     0.500000    Uiso  ? C
   C535       1.0     0.055556     0.850000     0.500000    Uiso  ? C
   C536       1.0     0.027778     0.750000     0.500000    Uiso  ? C
   C537       1.0     0.027778     0.800000     0.500000    Uiso  ? C
   C538       1.0     0.027778     0.850000     0.500000    Uiso  ? C
   C539       1.0     0.430555     0.675000     0.500000    Uiso  ? C
   C540       1.0     0.430555     0.725000     0.500000    Uiso  ? C
   C541       1.0     0.402778     0.675000     0.500000    Uiso  ? C
   C542       1.0     0.486111     0.675000     0.500000    Uiso  ? C
   C543       1.0     0.402778     0.725000     0.500000    Uiso  ? C
   C544       1.0     0.486111     0.725000     0.500000    Uiso  ? C
   C545       1.0     0.472222     0.650000     0.500000    Uiso  ? C
   C546       1.0     0.472222     0.700000     0.500000    Uiso  ? C
   C547       1.0     0.444445     0.650000     0.500000    Uiso  ? C
   C548       1.0     0.444445     0.700000     0.500000    Uiso  ? C
   C549       1.0     0.347222     0.675000     0.500000    Uiso  ? C
   C550       1.0     0.347222     0.725000     0.500000    Uiso  ? C
   C551       1.0     0.319445     0.675000     0.500000    Uiso  ? C
   C552       1.0     0.319445     0.725000     0.500000    Uiso  ? C
   C553       1.0     0.305555     0.650000     0.500000    Uiso  ? C
   C554       1.0     0.388889     0.650000     0.500000    Uiso  ? C
   C555       1.0     0.305555     0.700000     0.500000    Uiso  ? C
   C556       1.0     0.388889     0.700000     0.500000    Uiso  ? C
   C557       1.0     0.361111     0.650000     0.500000    Uiso  ? C
   C558       1.0     0.361111     0.700000     0.500000    Uiso  ? C
   C559       1.0     0.263889     0.675000     0.500000    Uiso  ? C
   C560       1.0     0.263889     0.725000     0.500000    Uiso  ? C
   C561       1.0     0.277778     0.650000     0.500000    Uiso  ? C
   C562       1.0     0.277778     0.700000     0.500000    Uiso  ? C
   C563       1.0     0.236111     0.675000     0.500000    Uiso  ? C
   C564       1.0     0.236111     0.725000     0.500000    Uiso  ? C
   C565       1.0     0.222222     0.650000     0.500000    Uiso  ? C
   C566       1.0     0.222222     0.700000     0.500000    Uiso  ? C
   C567       1.0     0.180555     0.675000     0.500000    Uiso  ? C
   C568       1.0     0.180555     0.725000     0.500000    Uiso  ? C
   C569       1.0     0.111111     0.650000     0.500000    Uiso  ? C
   C570       1.0     0.194445     0.650000     0.500000    Uiso  ? C
   C571       1.0     0.111111     0.700000     0.500000    Uiso  ? C
   C572       1.0     0.194445     0.700000     0.500000    Uiso  ? C
   C573       1.0     0.013889     0.675000     0.500000    Uiso  ? C
   C574       1.0     0.097222     0.675000     0.500000    Uiso  ? C
   C575       1.0     0.013889     0.725000     0.500000    Uiso  ? C
   C576       1.0     0.097222     0.725000     0.500000    Uiso  ? C
   C577       1.0     0.069444     0.675000     0.500000    Uiso  ? C
   C578       1.0     0.069444     0.725000     0.500000    Uiso  ? C
   C579       1.0     0.055556     0.650000     0.500000    Uiso  ? C
   C580       1.0     0.055556     0.700000     0.500000    Uiso  ? C
   C581       1.0     0.027778     0.650000     0.500000    Uiso  ? C
   C582       1.0     0.027778     0.700000     0.500000    Uiso  ? C
   C583       1.0     0.430555     0.525000     0.500000    Uiso  ? C
   C584       1.0     0.430555     0.575000     0.500000    Uiso  ? C
   C585       1.0     0.430555     0.625000     0.500000    Uiso  ? C
   C586       1.0     0.486111     0.525000     0.500000    Uiso  ? C
   C587       1.0     0.486111     0.575000     0.500000    Uiso  ? C
   C588       1.0     0.402778     0.625000     0.500000    Uiso  ? C
   C589       1.0     0.486111     0.625000     0.500000    Uiso  ? C
   C590       1.0     0.472222     0.500000     0.500000    Uiso  ? C
   C591       1.0     0.472222     0.550000     0.500000    Uiso  ? C
   C592       1.0     0.472222     0.600000     0.500000    Uiso  ? C
   C593       1.0     0.444445     0.500000     0.500000    Uiso  ? C
   C594       1.0     0.444445     0.550000     0.500000    Uiso  ? C
   C595       1.0     0.444445     0.600000     0.500000    Uiso  ? C
   C596       1.0     0.347222     0.525000     0.500000    Uiso  ? C
   C597       1.0     0.347222     0.575000     0.500000    Uiso  ? C
   C598       1.0     0.347222     0.625000     0.500000    Uiso  ? C
   C599       1.0     0.319445     0.525000     0.500000    Uiso  ? C
   C600       1.0     0.319445     0.575000     0.500000    Uiso  ? C
   C601       1.0     0.319445     0.625000     0.500000    Uiso  ? C
   C602       1.0     0.305555     0.500000     0.500000    Uiso  ? C
   C603       1.0     0.305555     0.550000     0.500000    Uiso  ? C
   C604       1.0     0.305555     0.600000     0.500000    Uiso  ? C
   C605       1.0     0.388889     0.600000     0.500000    Uiso  ? C
   C606       1.0     0.361111     0.500000     0.500000    Uiso  ? C
   C607       1.0     0.361111     0.550000     0.500000    Uiso  ? C
   C608       1.0     0.361111     0.600000     0.500000    Uiso  ? C
   C609       1.0     0.263889     0.525000     0.500000    Uiso  ? C
   C610       1.0     0.263889     0.575000     0.500000    Uiso  ? C
   C611       1.0     0.263889     0.625000     0.500000    Uiso  ? C
   C612       1.0     0.277778     0.500000     0.500000    Uiso  ? C
   C613       1.0     0.277778     0.550000     0.500000    Uiso  ? C
   C614       1.0     0.277778     0.600000     0.500000    Uiso  ? C
   C615       1.0     0.236111     0.525000     0.500000    Uiso  ? C
   C616       1.0     0.236111     0.575000     0.500000    Uiso  ? C
   C617       1.0     0.236111     0.625000     0.500000    Uiso  ? C
   C618       1.0     0.222222     0.500000     0.500000    Uiso  ? C
   C619       1.0     0.222222     0.550000     0.500000    Uiso  ? C
   C620       1.0     0.222222     0.600000     0.500000    Uiso  ? C
   C621       1.0     0.180555     0.525000     0.500000    Uiso  ? C
   C622       1.0     0.180555     0.575000     0.500000    Uiso  ? C
   C623       1.0     0.180555     0.625000     0.500000    Uiso  ? C
   C624       1.0     0.152778     0.525000     0.500000    Uiso  ? C
   C625       1.0     0.152778     0.575000     0.500000    Uiso  ? C
   C626       1.0     0.138889     0.500000     0.500000    Uiso  ? C
   C627       1.0     0.138889     0.550000     0.500000    Uiso  ? C
   C628       1.0     0.111111     0.500000     0.500000    Uiso  ? C
   C629       1.0     0.194445     0.500000     0.500000    Uiso  ? C
   C630       1.0     0.111111     0.550000     0.500000    Uiso  ? C
   C631       1.0     0.194445     0.550000     0.500000    Uiso  ? C
   C632       1.0     0.111111     0.600000     0.500000    Uiso  ? C
   C633       1.0     0.194445     0.600000     0.500000    Uiso  ? C
   C634       1.0     0.013889     0.525000     0.500000    Uiso  ? C
   C635       1.0     0.097222     0.525000     0.500000    Uiso  ? C
   C636       1.0     0.013889     0.575000     0.500000    Uiso  ? C
   C637       1.0     0.097222     0.575000     0.500000    Uiso  ? C
   C638       1.0     0.013889     0.625000     0.500000    Uiso  ? C
   C639       1.0     0.097222     0.625000     0.500000    Uiso  ? C
   C640       1.0     0.069444     0.525000     0.500000    Uiso  ? C
   C641       1.0     0.069444     0.575000     0.500000    Uiso  ? C
   C642       1.0     0.069444     0.625000     0.500000    Uiso  ? C
   C643       1.0     0.055556     0.500000     0.500000    Uiso  ? C
   C644       1.0     0.055556     0.550000     0.500000    Uiso  ? C
   C645       1.0     0.055556     0.600000     0.500000    Uiso  ? C
   C646       1.0     0.027778     0.500000     0.500000    Uiso  ? C
   C647       1.0     0.027778     0.550000     0.500000    Uiso  ? C
   C648       1.0     0.027778     0.600000     0.500000    Uiso  ? C
   C649       1.0     0.430555     0.425000     0.500000    Uiso  ? C
   C650       1.0     0.430555     0.475000     0.500000    Uiso  ? C
   C651       1.0     0.486111     0.475000     0.500000    Uiso  ? C
   C652       1.0     0.486111     0.425000     0.500000    Uiso  ? C
   C653       1.0     0.472222     0.400000     0.500000    Uiso  ? C
   C654       1.0     0.472222     0.450000     0.500000    Uiso  ? C
   C655       1.0     0.444445     0.400000     0.500000    Uiso  ? C
   C656       1.0     0.444445     0.450000     0.500000    Uiso  ? C
   C657       1.0     0.347222     0.425000     0.500000    Uiso  ? C
   C658       1.0     0.347222     0.475000     0.500000    Uiso  ? C
   C659       1.0     0.319445     0.475000     0.500000    Uiso  ? C
   C660       1.0     0.319445     0.425000     0.500000    Uiso  ? C
   C661       1.0     0.305555     0.400000     0.500000    Uiso  ? C
   C662       1.0     0.305555     0.450000     0.500000    Uiso  ? C
   C663       1.0     0.361111     0.400000     0.500000    Uiso  ? C
   C664       1.0     0.361111     0.450000     0.500000    Uiso  ? C
   C665       1.0     0.263889     0.425000     0.500000    Uiso  ? C
   C666       1.0     0.263889     0.475000     0.500000    Uiso  ? C
   C667       1.0     0.277778     0.400000     0.500000    Uiso  ? C
   C668       1.0     0.277778     0.450000     0.500000    Uiso  ? C
   C669       1.0     0.236111     0.475000     0.500000    Uiso  ? C
   C670       1.0     0.236111     0.425000     0.500000    Uiso  ? C
   C671       1.0     0.222222     0.400000     0.500000    Uiso  ? C
   C672       1.0     0.222222     0.450000     0.500000    Uiso  ? C
   C673       1.0     0.180555     0.425000     0.500000    Uiso  ? C
   C674       1.0     0.180555     0.475000     0.500000    Uiso  ? C
   C675       1.0     0.152778     0.475000     0.500000    Uiso  ? C
   C676       1.0     0.152778     0.425000     0.500000    Uiso  ? C
   C677       1.0     0.138889     0.400000     0.500000    Uiso  ? C
   C678       1.0     0.138889     0.450000     0.500000    Uiso  ? C
   C679       1.0     0.111111     0.400000     0.500000    Uiso  ? C
   C680       1.0     0.194445     0.400000     0.500000    Uiso  ? C
   C681       1.0     0.111111     0.450000     0.500000    Uiso  ? C
   C682       1.0     0.194445     0.450000     0.500000    Uiso  ? C
   C683       1.0     0.013889     0.425000     0.500000    Uiso  ? C
   C684       1.0     0.097222     0.425000     0.500000    Uiso  ? C
   C685       1.0     0.013889     0.475000     0.500000    Uiso  ? C
   C686       1.0     0.097222     0.475000     0.500000    Uiso  ? C
   C687       1.0     0.069444     0.475000     0.500000    Uiso  ? C
   C688       1.0     0.069444     0.425000     0.500000    Uiso  ? C
   C689       1.0     0.055556     0.400000     0.500000    Uiso  ? C
   C690       1.0     0.055556     0.450000     0.500000    Uiso  ? C
   C691       1.0     0.027778     0.400000     0.500000    Uiso  ? C
   C692       1.0     0.027778     0.450000     0.500000    Uiso  ? C
   C693       1.0     0.430555     0.275000     0.500000    Uiso  ? C
   C694       1.0     0.430555     0.325000     0.500000    Uiso  ? C
   C695       1.0     0.430555     0.375000     0.500000    Uiso  ? C
   C696       1.0     0.402778     0.275000     0.500000    Uiso  ? C
   C697       1.0     0.486111     0.275000     0.500000    Uiso  ? C
   C698       1.0     0.486111     0.325000     0.500000    Uiso  ? C
   C699       1.0     0.486111     0.375000     0.500000    Uiso  ? C
   C700       1.0     0.472222     0.250000     0.500000    Uiso  ? C
   C701       1.0     0.472222     0.300000     0.500000    Uiso  ? C
   C702       1.0     0.472222     0.350000     0.500000    Uiso  ? C
   C703       1.0     0.444445     0.250000     0.500000    Uiso  ? C
   C704       1.0     0.444445     0.300000     0.500000    Uiso  ? C
   C705       1.0     0.444445     0.350000     0.500000    Uiso  ? C
   C706       1.0     0.347222     0.275000     0.500000    Uiso  ? C
   C707       1.0     0.347222     0.325000     0.500000    Uiso  ? C
   C708       1.0     0.347222     0.375000     0.500000    Uiso  ? C
   C709       1.0     0.319445     0.275000     0.500000    Uiso  ? C
   C710       1.0     0.319445     0.325000     0.500000    Uiso  ? C
   C711       1.0     0.319445     0.375000     0.500000    Uiso  ? C
   C712       1.0     0.305555     0.250000     0.500000    Uiso  ? C
   C713       1.0     0.388889     0.250000     0.500000    Uiso  ? C
   C714       1.0     0.305555     0.300000     0.500000    Uiso  ? C
   C715       1.0     0.305555     0.350000     0.500000    Uiso  ? C
   C716       1.0     0.361111     0.250000     0.500000    Uiso  ? C
   C717       1.0     0.361111     0.300000     0.500000    Uiso  ? C
   C718       1.0     0.361111     0.350000     0.500000    Uiso  ? C
   C719       1.0     0.263889     0.275000     0.500000    Uiso  ? C
   C720       1.0     0.263889     0.325000     0.500000    Uiso  ? C
   C721       1.0     0.263889     0.375000     0.500000    Uiso  ? C
   C722       1.0     0.277778     0.250000     0.500000    Uiso  ? C
   C723       1.0     0.277778     0.300000     0.500000    Uiso  ? C
   C724       1.0     0.277778     0.350000     0.500000    Uiso  ? C
   C725       1.0     0.236111     0.275000     0.500000    Uiso  ? C
   C726       1.0     0.236111     0.325000     0.500000    Uiso  ? C
   C727       1.0     0.236111     0.375000     0.500000    Uiso  ? C
   C728       1.0     0.222222     0.250000     0.500000    Uiso  ? C
   C729       1.0     0.222222     0.300000     0.500000    Uiso  ? C
   C730       1.0     0.222222     0.350000     0.500000    Uiso  ? C
   C731       1.0     0.180555     0.275000     0.500000    Uiso  ? C
   C732       1.0     0.180555     0.325000     0.500000    Uiso  ? C
   C733       1.0     0.180555     0.375000     0.500000    Uiso  ? C
   C734       1.0     0.111111     0.250000     0.500000    Uiso  ? C
   C735       1.0     0.194445     0.250000     0.500000    Uiso  ? C
   C736       1.0     0.111111     0.300000     0.500000    Uiso  ? C
   C737       1.0     0.194445     0.300000     0.500000    Uiso  ? C
   C738       1.0     0.111111     0.350000     0.500000    Uiso  ? C
   C739       1.0     0.194445     0.350000     0.500000    Uiso  ? C
   C740       1.0     0.013889     0.275000     0.500000    Uiso  ? C
   C741       1.0     0.097222     0.275000     0.500000    Uiso  ? C
   C742       1.0     0.013889     0.325000     0.500000    Uiso  ? C
   C743       1.0     0.097222     0.325000     0.500000    Uiso  ? C
   C744       1.0     0.013889     0.375000     0.500000    Uiso  ? C
   C745       1.0     0.097222     0.375000     0.500000    Uiso  ? C
   C746       1.0     0.069444     0.275000     0.500000    Uiso  ? C
   C747       1.0     0.069444     0.325000     0.500000    Uiso  ? C
   C748       1.0     0.069444     0.375000     0.500000    Uiso  ? C
   C749       1.0     0.055556     0.250000     0.500000    Uiso  ? C
   C750       1.0     0.055556     0.300000     0.500000    Uiso  ? C
   C751       1.0     0.055556     0.350000     0.500000    Uiso  ? C
   C752       1.0     0.027778     0.250000     0.500000    Uiso  ? C
   C753       1.0     0.027778     0.300000     0.500000    Uiso  ? C
   C754       1.0     0.027778     0.350000     0.500000    Uiso  ? C
   C755       1.0     0.430555     0.175000     0.500000    Uiso  ? C
   C756       1.0     0.430555     0.225000     0.500000    Uiso  ? C
   C757       1.0     0.402778     0.175000     0.500000    Uiso  ? C
   C758       1.0     0.486111     0.175000     0.500000    Uiso  ? C
   C759       1.0     0.402778     0.225000     0.500000    Uiso  ? C
   C760       1.0     0.486111     0.225000     0.500000    Uiso  ? C
   C761       1.0     0.472222     0.150000     0.500000    Uiso  ? C
   C762       1.0     0.472222     0.200000     0.500000    Uiso  ? C
   C763       1.0     0.444445     0.150000     0.500000    Uiso  ? C
   C764       1.0     0.444445     0.200000     0.500000    Uiso  ? C
   C765       1.0     0.347222     0.175000     0.500000    Uiso  ? C
   C766       1.0     0.347222     0.225000     0.500000    Uiso  ? C
   C767       1.0     0.319445     0.175000     0.500000    Uiso  ? C
   C768       1.0     0.319445     0.225000     0.500000    Uiso  ? C
   C769       1.0     0.305555     0.150000     0.500000    Uiso  ? C
   C770       1.0     0.388889     0.150000     0.500000    Uiso  ? C
   C771       1.0     0.305555     0.200000     0.500000    Uiso  ? C
   C772       1.0     0.388889     0.200000     0.500000    Uiso  ? C
   C773       1.0     0.361111     0.150000     0.500000    Uiso  ? C
   C774       1.0     0.361111     0.200000     0.500000    Uiso  ? C
   C775       1.0     0.263889     0.175000     0.500000    Uiso  ? C
   C776       1.0     0.263889     0.225000     0.500000    Uiso  ? C
   C777       1.0     0.277778     0.150000     0.500000    Uiso  ? C
   C778       1.0     0.277778     0.200000     0.500000    Uiso  ? C
   C779       1.0     0.236111     0.175000     0.500000    Uiso  ? C
   C780       1.0     0.236111     0.225000     0.500000    Uiso  ? C
   C781       1.0     0.222222     0.150000     0.500000    Uiso  ? C
   C782       1.0     0.222222     0.200000     0.500000    Uiso  ? C
   C783       1.0     0.180555     0.175000     0.500000    Uiso  ? C
   C784       1.0     0.180555     0.225000     0.500000    Uiso  ? C
   C785       1.0     0.111111     0.150000     0.500000    Uiso  ? C
   C786       1.0     0.194445     0.150000     0.500000    Uiso  ? C
   C787       1.0     0.111111     0.200000     0.500000    Uiso  ? C
   C788       1.0     0.194445     0.200000     0.500000    Uiso  ? C
   C789       1.0     0.013889     0.175000     0.500000    Uiso  ? C
   C790       1.0     0.097222     0.175000     0.500000    Uiso  ? C
   C791       1.0     0.013889     0.225000     0.500000    Uiso  ? C
   C792       1.0     0.097222     0.225000     0.500000    Uiso  ? C
   C793       1.0     0.069444     0.175000     0.500000    Uiso  ? C
   C794       1.0     0.069444     0.225000     0.500000    Uiso  ? C
   C795       1.0     0.055556     0.150000     0.500000    Uiso  ? C
   C796       1.0     0.055556     0.200000     0.500000    Uiso  ? C
   C797       1.0     0.027778     0.150000     0.500000    Uiso  ? C
   C798       1.0     0.027778     0.200000     0.500000    Uiso  ? C
   C799       1.0     0.430555     0.025000     0.500000    Uiso  ? C
   C800       1.0     0.430555     0.075000     0.500000    Uiso  ? C
   C801       1.0     0.430555     0.125000     0.500000    Uiso  ? C
   C802       1.0     0.486111     0.025000     0.500000    Uiso  ? C
   C803       1.0     0.486111     0.075000     0.500000    Uiso  ? C
   C804       1.0     0.402778     0.125000     0.500000    Uiso  ? C
   C805       1.0     0.486111     0.125000     0.500000    Uiso  ? C
   C806       1.0     0.472222     0.000000     0.500000    Uiso  ? C
   C807       1.0     0.472222     0.050000     0.500000    Uiso  ? C
   C808       1.0     0.472222     0.100000     0.500000    Uiso  ? C
   C809       1.0     0.444445     0.000000     0.500000    Uiso  ? C
   C810       1.0     0.444445     0.050000     0.500000    Uiso  ? C
   C811       1.0     0.444445     0.100000     0.500000    Uiso  ? C
   C812       1.0     0.347222     0.025000     0.500000    Uiso  ? C
   C813       1.0     0.347222     0.075000     0.500000    Uiso  ? C
   C814       1.0     0.347222     0.125000     0.500000    Uiso  ? C
   C815       1.0     0.319445     0.025000     0.500000    Uiso  ? C
   C816       1.0     0.319445     0.075000     0.500000    Uiso  ? C
   C817       1.0     0.319445     0.125000     0.500000    Uiso  ? C
   C818       1.0     0.305555     0.000000     0.500000    Uiso  ? C
   C819       1.0     0.305555     0.050000     0.500000    Uiso  ? C
   C820       1.0     0.305555     0.100000     0.500000    Uiso  ? C
   C821       1.0     0.388889     0.100000     0.500000    Uiso  ? C
   C822       1.0     0.361111     0.000000     0.500000    Uiso  ? C
   C823       1.0     0.361111     0.050000     0.500000    Uiso  ? C
   C824       1.0     0.361111     0.100000     0.500000    Uiso  ? C
   C825       1.0     0.263889     0.025000     0.500000    Uiso  ? C
   C826       1.0     0.263889     0.075000     0.500000    Uiso  ? C
   C827       1.0     0.263889     0.125000     0.500000    Uiso  ? C
   C828       1.0     0.277778     0.000000     0.500000    Uiso  ? C
   C829       1.0     0.277778     0.050000     0.500000    Uiso  ? C
   C830       1.0     0.277778     0.100000     0.500000    Uiso  ? C
   C831       1.0     0.236111     0.025000     0.500000    Uiso  ? C
   C832       1.0     0.236111     0.075000     0.500000    Uiso  ? C
   C833       1.0     0.236111     0.125000     0.500000    Uiso  ? C
   C834       1.0     0.222222     0.000000     0.500000    Uiso  ? C
   C835       1.0     0.222222     0.050000     0.500000    Uiso  ? C
   C836       1.0     0.222222     0.100000     0.500000    Uiso  ? C
   C837       1.0     0.180555     0.025000     0.500000    Uiso  ? C
   C838       1.0     0.180555     0.075000     0.500000    Uiso  ? C
   C839       1.0     0.180555     0.125000     0.500000    Uiso  ? C
   C840       1.0     0.152778     0.025000     0.500000    Uiso  ? C
   C841       1.0     0.152778     0.075000     0.500000    Uiso  ? C
   C842       1.0     0.138889     0.000000     0.500000    Uiso  ? C
   C843       1.0     0.138889     0.050000     0.500000    Uiso  ? C
   C844       1.0     0.111111     0.000000     0.500000    Uiso  ? C
   C845       1.0     0.194445     0.000000     0.500000    Uiso  ? C
   C846       1.0     0.111111     0.050000     0.500000    Uiso  ? C
   C847       1.0     0.194445     0.050000     0.500000    Uiso  ? C
   C848       1.0     0.111111     0.100000     0.500000    Uiso  ? C
   C849       1.0     0.194445     0.100000     0.500000    Uiso  ? C
   C850       1.0     0.013889     0.025000     0.500000    Uiso  ? C
   C851       1.0     0.097222     0.025000     0.500000    Uiso  ? C
   C852       1.0     0.013889     0.075000     0.500000    Uiso  ? C
   C853       1.0     0.097222     0.075000     0.500000    Uiso  ? C
   C854       1.0     0.013889     0.125000     0.500000    Uiso  ? C
   C855       1.0     0.097222     0.125000     0.500000    Uiso  ? C
   C856       1.0     0.069444     0.025000     0.500000    Uiso  ? C
   C857       1.0     0.069444     0.075000     0.500000    Uiso  ? C
   C858       1.0     0.069444     0.125000     0.500000    Uiso  ? C
   C859       1.0     0.055556     0.000000     0.500000    Uiso  ? C
   C860       1.0     0.055556     0.050000     0.500000    Uiso  ? C
   C861       1.0     0.055556     0.100000     0.500000    Uiso  ? C
   C862       1.0     0.027778     0.000000     0.500000    Uiso  ? C
   C863       1.0     0.027778     0.050000     0.500000    Uiso  ? C
   C864       1.0     0.027778     0.100000     0.500000    Uiso  ? C
   H1         1.0     0.920935     0.925000     0.539593    Uiso  ? H
   H2         1.0     0.909981     0.971026     0.500000    Uiso  ? H
   H3         1.0     0.873193     0.900000     0.536402    Uiso  ? H
   H4         1.0     0.873193     0.950000     0.536402    Uiso  ? H
   H5         1.0     0.648981     0.881835     0.500000    Uiso  ? H
   H6         1.0     0.920935     0.825000     0.539593    Uiso  ? H
   H7         1.0     0.920935     0.875000     0.539593    Uiso  ? H
   H8         1.0     0.892686     0.793166     0.500000    Uiso  ? H
   H9         1.0     0.873193     0.800000     0.536402    Uiso  ? H
   H10        1.0     0.873193     0.850000     0.536402    Uiso  ? H
   H11        1.0     0.670935     0.775000     0.539593    Uiso  ? H
   H12        1.0     0.670935     0.825000     0.539593    Uiso  ? H
   H13        1.0     0.670935     0.875000     0.539593    Uiso  ? H
   H14        1.0     0.623193     0.750000     0.536402    Uiso  ? H
   H15        1.0     0.623193     0.800000     0.536402    Uiso  ? H
   H16        1.0     0.623193     0.850000     0.536402    Uiso  ? H
   H17        1.0     0.670935     0.675000     0.539593    Uiso  ? H
   H18        1.0     0.670935     0.725000     0.539593    Uiso  ? H
   H19        1.0     0.623193     0.650000     0.536402    Uiso  ? H
   H20        1.0     0.623193     0.700000     0.536402    Uiso  ? H
   H21        1.0     0.920935     0.525000     0.539593    Uiso  ? H
   H22        1.0     0.920935     0.575000     0.539593    Uiso  ? H
   H23        1.0     0.873193     0.500000     0.536402    Uiso  ? H
   H24        1.0     0.898981     0.581835     0.500000    Uiso  ? H
   H25        1.0     0.873193     0.550000     0.536402    Uiso  ? H
   H26        1.0     0.670935     0.625000     0.539593    Uiso  ? H
   H27        1.0     0.642686     0.593166     0.500000    Uiso  ? H
   H28        1.0     0.623193     0.600000     0.536402    Uiso  ? H
   H29        1.0     0.920935     0.425000     0.539593    Uiso  ? H
   H30        1.0     0.909981     0.471026     0.500000    Uiso  ? H
   H31        1.0     0.873193     0.400000     0.536402    Uiso  ? H
   H32        1.0     0.873193     0.450000     0.536402    Uiso  ? H
   H33        1.0     0.648981     0.381835     0.500000    Uiso  ? H
   H34        1.0     0.920935     0.325000     0.539593    Uiso  ? H
   H35        1.0     0.920935     0.375000     0.539593    Uiso  ? H
   H36        1.0     0.892686     0.293166     0.500000    Uiso  ? H
   H37        1.0     0.873193     0.300000     0.536402    Uiso  ? H
   H38        1.0     0.873193     0.350000     0.536402    Uiso  ? H
   H39        1.0     0.670935     0.275000     0.539593    Uiso  ? H
   H40        1.0     0.670935     0.325000     0.539593    Uiso  ? H
   H41        1.0     0.670935     0.375000     0.539593    Uiso  ? H
   H42        1.0     0.623193     0.250000     0.536402    Uiso  ? H
   H43        1.0     0.623193     0.300000     0.536402    Uiso  ? H
   H44        1.0     0.623193     0.350000     0.536402    Uiso  ? H
   H45        1.0     0.670935     0.175000     0.539593    Uiso  ? H
   H46        1.0     0.670935     0.225000     0.539593    Uiso  ? H
   H47        1.0     0.623193     0.150000     0.536402    Uiso  ? H
   H48        1.0     0.623193     0.200000     0.536402    Uiso  ? H
   H49        1.0     0.920935     0.025000     0.539593    Uiso  ? H
   H50        1.0     0.920935     0.075000     0.539593    Uiso  ? H
   H51        1.0     0.873193     0.000000     0.536402    Uiso  ? H
   H52        1.0     0.898981     0.081835     0.500000    Uiso  ? H
   H53        1.0     0.873193     0.050000     0.536402    Uiso  ? H
   H54        1.0     0.670935     0.125000     0.539593    Uiso  ? H
   H55        1.0     0.642686     0.093166     0.500000    Uiso  ? H
   H56        1.0     0.623193     0.100000     0.536402    Uiso  ? H
   H57        1.0     0.420935     0.925000     0.539593    Uiso  ? H
   H58        1.0     0.409981     0.971026     0.500000    Uiso  ? H
   H59        1.0     0.373193     0.900000     0.536402    Uiso  ? H
   H60        1.0     0.373193     0.950000     0.536402    Uiso  ? H
   H61        1.0     0.148981     0.881835     0.500000    Uiso  ? H
   H62        1.0     0.420935     0.825000     0.539593    Uiso  ? H
   H63        1.0     0.420935     0.875000     0.539593    Uiso  ? H
   H64        1.0     0.392686     0.793166     0.500000    Uiso  ? H
   H65        1.0     0.373193     0.800000     0.536402    Uiso  ? H
   H66        1.0     0.373193     0.850000     0.536402    Uiso  ? H
   H67        1.0     0.170935     0.775000     0.539593    Uiso  ? H
   H68        1.0     0.170935     0.825000     0.539593    Uiso  ? H
   H69        1.0     0.170935     0.875000     0.539593    Uiso  ? H
   H70        1.0     0.123193     0.750000     0.536402    Uiso  ? H
   H71        1.0     0.123193     0.800000     0.536402    Uiso  ? H
   H72        1.0     0.123193     0.850000     0.536402    Uiso  ? H
   H73        1.0     0.170935     0.675000     0.539593    Uiso  ? H
   H74        1.0     0.170935     0.725000     0.539593    Uiso  ? H
   H75        1.0     0.123193     0.650000     0.536402    Uiso  ? H
   H76        1.0     0.123193     0.700000     0.536402    Uiso  ? H
   H77        1.0     0.420935     0.525000     0.539593    Uiso  ? H
   H78        1.0     0.420935     0.575000     0.539593    Uiso  ? H
   H79        1.0     0.373193     0.500000     0.536402    Uiso  ? H
   H80        1.0     0.398981     0.581835     0.500000    Uiso  ? H
   H81        1.0     0.373193     0.550000     0.536402    Uiso  ? H
   H82        1.0     0.170935     0.625000     0.539593    Uiso  ? H
   H83        1.0     0.142686     0.593166     0.500000    Uiso  ? H
   H84        1.0     0.123193     0.600000     0.536402    Uiso  ? H
   H85        1.0     0.420935     0.425000     0.539593    Uiso  ? H
   H86        1.0     0.409981     0.471026     0.500000    Uiso  ? H
   H87        1.0     0.373193     0.400000     0.536402    Uiso  ? H
   H88        1.0     0.373193     0.450000     0.536402    Uiso  ? H
   H89        1.0     0.148981     0.381835     0.500000    Uiso  ? H
   H90        1.0     0.420935     0.325000     0.539593    Uiso  ? H
   H91        1.0     0.420935     0.375000     0.539593    Uiso  ? H
   H92        1.0     0.392686     0.293166     0.500000    Uiso  ? H
   H93        1.0     0.373193     0.300000     0.536402    Uiso  ? H
   H94        1.0     0.373193     0.350000     0.536402    Uiso  ? H
   H95        1.0     0.170935     0.275000     0.539593    Uiso  ? H
   H96        1.0     0.170935     0.325000     0.539593    Uiso  ? H
   H97        1.0     0.170935     0.375000     0.539593    Uiso  ? H
   H98        1.0     0.123193     0.250000     0.536402    Uiso  ? H
   H99        1.0     0.123193     0.300000     0.536402    Uiso  ? H
   H100       1.0     0.123193     0.350000     0.536402    Uiso  ? H
   H101       1.0     0.170935     0.175000     0.539593    Uiso  ? H
   H102       1.0     0.170935     0.225000     0.539593    Uiso  ? H
   H103       1.0     0.123193     0.150000     0.536402    Uiso  ? H
   H104       1.0     0.123193     0.200000     0.536402    Uiso  ? H
   H105       1.0     0.420935     0.025000     0.539593    Uiso  ? H
   H106       1.0     0.420935     0.075000     0.539593    Uiso  ? H
   H107       1.0     0.373193     0.000000     0.536402    Uiso  ? H
   H108       1.0     0.398981     0.081835     0.500000    Uiso  ? H
   H109       1.0     0.373193     0.050000     0.536402    Uiso  ? H
   H110       1.0     0.170935     0.125000     0.539593    Uiso  ? H
   H111       1.0     0.142686     0.093166     0.500000    Uiso  ? H
   H112       1.0     0.123193     0.100000     0.536402    Uiso  ? H
