data_Mg4C60
_audit_creation_date               2021-07-02
_audit_creation_method
;
Olex2 1.3
(compiled 2020.11.12 svn.r5f609507 for OlexSys, GUI svn.r6257)
;
_shelx_SHELXL_version_number       '2018/3'
_audit_contact_author_address      ?
_audit_contact_author_email        ?
_audit_contact_author_name         ''
_audit_contact_author_phone        ?
_publ_contact_author_id_orcid      ?
_publ_section_references
;
Dolomanov, O.V., Bourhis, L.J., Gildea, R.J, Howard, J.A.K. & Puschmann, H.
 (2009), J. Appl. Cryst. 42, 339-341.

Sheldrick, G.M. (2015). Acta Cryst. C71, 3-8.
;
_chemical_name_common              ?
_chemical_name_systematic          Mg4C60
_chemical_formula_moiety           'C60 Mg3.966'
_chemical_formula_sum              'C60 Mg3.97'
_chemical_formula_weight           816.99
_chemical_melting_point            ?
loop_
  _atom_type_symbol
  _atom_type_description
  _atom_type_scat_dispersion_real
  _atom_type_scat_dispersion_imag
  _atom_type_scat_source
 'C' 'C' 0.0181 0.0091 'International Tables Vol C Tables 4.2.6.8 and 6.1.1.4'
 'Mg' 'Mg' 0.1719 0.1771 'International Tables Vol C Tables 4.2.6.8 and 6.1.1.4'

_shelx_space_group_comment
;
The symmetry employed for this shelxl refinement is uniquely defined
by the following loop, which should always be used as a source of
symmetry information in preference to the above space-group names.
They are only intended as comments.
;
_space_group_crystal_system        'monoclinic'
_space_group_IT_number             15
_space_group_name_H-M_alt          'C 1 2/c 1'
_space_group_name_Hall             '-C 2yc'
loop_
  _space_group_symop_operation_xyz
 'x, y, z'
 '-x, y, -z+1/2'
 'x+1/2, y+1/2, z'
 '-x+1/2, y+1/2, -z+1/2'
 '-x, -y, -z'
 'x, -y, z-1/2'
 '-x+1/2, -y+1/2, -z'
 'x+1/2, -y+1/2, z-1/2'

_cell_length_a                     17.5224(11)
_cell_length_b                     9.1603(5)
_cell_length_c                     16.0208(10)
_cell_angle_alpha                  90
_cell_angle_beta                   105.145(7)
_cell_angle_gamma                  90
_cell_volume                       2482.2(3)
_cell_formula_units_Z              4
_cell_measurement_reflns_used      1547
_cell_measurement_temperature      99.9(4)
_cell_measurement_theta_max        71.8770
_cell_measurement_theta_min        5.2330
_shelx_estimated_absorpt_T_max     ?
_shelx_estimated_absorpt_T_min     ?
_exptl_absorpt_coefficient_mu      1.898
_exptl_absorpt_correction_T_max    1.00000
_exptl_absorpt_correction_T_min    0.89604
_exptl_absorpt_correction_type     multi-scan
_exptl_absorpt_process_details
;
CrysAlisPro 1.171.40.84a (Rigaku Oxford Diffraction, 2020)
Empirical absorption correction using spherical harmonics,
implemented in SCALE3 ABSPACK scaling algorithm.
;
_exptl_absorpt_special_details     ?
_exptl_crystal_colour              'metallic black'
_exptl_crystal_colour_lustre       metallic
_exptl_crystal_colour_primary      black
_exptl_crystal_density_diffrn      2.186
_exptl_crystal_density_meas        ?
_exptl_crystal_density_method      ?
_exptl_crystal_description         plate
_exptl_crystal_F_000               1630
loop_
  _exptl_crystal_face_index_h
  _exptl_crystal_face_index_k
  _exptl_crystal_face_index_l
  _exptl_crystal_face_perp_dist
 0 -3 -25 0.0200
 -4 6 2 0.0268
 -11 0 3 0.0411
 -1 -6 0 0.0190
 11 0 -2 0.0042
 -5 2 9 0.0212

_exptl_crystal_size_max            0.078
_exptl_crystal_size_mid            0.061
_exptl_crystal_size_min            0.044
_exptl_transmission_factor_max     ?
_exptl_transmission_factor_min     ?
_diffrn_reflns_av_R_equivalents    0.0333
_diffrn_reflns_av_unetI/netI       0.0508
_diffrn_reflns_Laue_measured_fraction_full  0.996
_diffrn_reflns_Laue_measured_fraction_max  0.972
_diffrn_reflns_limit_h_max         21
_diffrn_reflns_limit_h_min         -17
_diffrn_reflns_limit_k_max         11
_diffrn_reflns_limit_k_min         -10
_diffrn_reflns_limit_l_max         19
_diffrn_reflns_limit_l_min         -16
_diffrn_reflns_number              3897
_diffrn_reflns_point_group_measured_fraction_full  0.996
_diffrn_reflns_point_group_measured_fraction_max  0.972
_diffrn_reflns_theta_full          67.684
_diffrn_reflns_theta_max           71.975
_diffrn_reflns_theta_min           5.230
_diffrn_ambient_temperature        100(2)
_diffrn_detector_area_resol_mean   8.0549
_diffrn_detector_type              EosS2
_diffrn_measured_fraction_theta_full  0.996
_diffrn_measured_fraction_theta_max  0.972
_diffrn_measurement_details
;
List of Runs (angles in degrees, time in seconds):

  # Type    Start    End  Width  t~exp~   \w     \q     \k     \f   Frames
--------------------------------------------------------------------------
  1  \w   -103.00 -24.00   1.00   15.00    --  -37.78 -37.00 150.00   79
  2  \w   -102.00 -22.00   1.00   15.00    --  -37.78 -57.00  60.00   80
  3  \w     56.00 109.00   1.00   15.00    --   37.78-178.00  90.00   53
  4  \w     60.00  85.00   1.00   15.00    --   37.78 178.00-150.00   25
  5  \w     60.00  89.00   1.00   15.00    --   37.78 178.00   0.00   29
  6  \w     46.00 118.00   1.00   60.00    --  109.58 -45.00-180.00   72
  7  \w     51.00 124.00   1.00   60.00    --  109.58 -61.00   0.00   73
  8  \w    115.00 157.00   1.00   60.00    --  109.58 111.00 -30.00   42
  9  \w     45.00  74.00   1.00   60.00    --  109.58 -94.00   0.00   29
 10  \w     92.00 174.00   1.00   60.00    --  109.58  61.00 120.00   82
 11  \w     44.00  69.00   1.00   60.00    --  109.58 -94.00 120.00   25
 12  \w     40.00 148.00   1.00   60.00    --  109.58 -15.00 -60.00  108
;
_diffrn_measurement_device         'four-circle diffractometer'
_diffrn_measurement_device_type    'SuperNova, Dual, Cu at home/near, EosS2'
_diffrn_measurement_method         '\w scans'
_diffrn_radiation_type             CuK\a
_diffrn_radiation_wavelength       1.54184
_diffrn_source                     ?
_reflns_Friedel_coverage           0.000
_reflns_Friedel_fraction_full      .
_reflns_Friedel_fraction_max       .
_reflns_number_gt                  2021
_reflns_number_total               2374
_reflns_special_details
;
 Reflections were merged by SHELXL according to the crystal
 class for the calculation of statistics and refinement.
 
 _reflns_Friedel_fraction is defined as the number of unique
 Friedel pairs measured divided by the number that would be
 possible theoretically, ignoring centric projections and
 systematic absences.
;
_reflns_threshold_expression       'I > 2\s(I)'
_computing_cell_refinement         'CrysAlisPro 1.171.40.84a (Rigaku OD, 2020)'
_computing_data_collection         'CrysAlisPro 1.171.40.84a (Rigaku OD, 2020)'
_computing_data_reduction          'CrysAlisPro 1.171.40.84a (Rigaku OD, 2020)'
_computing_molecular_graphics      'Olex2 1.3 (Dolomanov et al., 2009)'
_computing_publication_material    'Olex2 1.3 (Dolomanov et al., 2009)'
_computing_structure_refinement    'SHELXL 2018/3 (Sheldrick, 2015)'
_computing_structure_solution      'ShelXT (Sheldrick, 2015)'
_refine_diff_density_max           1.440
_refine_diff_density_min           -1.013
_refine_diff_density_rms           0.119
_refine_ls_extinction_coef         .
_refine_ls_extinction_method       none
_refine_ls_goodness_of_fit_ref     1.129
_refine_ls_hydrogen_treatment      undef
_refine_ls_matrix_type             full
_refine_ls_number_parameters       310
_refine_ls_number_reflns           2374
_refine_ls_number_restraints       0
_refine_ls_R_factor_all            0.0867
_refine_ls_R_factor_gt             0.0764
_refine_ls_restrained_S_all        1.129
_refine_ls_shift/su_max            0.000
_refine_ls_shift/su_mean           0.000
_refine_ls_structure_factor_coef   Fsqd
_refine_ls_weighting_details      
 'w=1/[\s^2^(Fo^2^)+(0.0888P)^2^+22.0333P] where P=(Fo^2^+2Fc^2^)/3'
_refine_ls_weighting_scheme        calc
_refine_ls_wR_factor_gt            0.1985
_refine_ls_wR_factor_ref           0.2062
_refine_special_details            ?
_olex2_refinement_description
;
;
# start Validation Reply Form
_vrf_PLAT088_Mg4C60
;
PROBLEM: Poor Data / Parameter Ratio ....................       7.88 Note  
RESPONSE: Due to the fact that the material consists of a closely packed lattice of carbon
atoms, the asymmetric unit contains 30 carbons and 2 disordered magnesium atoms. 
Although this results in a large number of parameters to be fit, the tight network of covalent bonding
within the C60 units, reduces the effective possible variation in any parameter.  
;
_vrf_PLAT097_Mg4C60
;
PROBLEM: Large Reported Max.  (Positive) Residual Density       1.44 eA-3  
RESPONSE: Two out of the Mg atoms are disordered over a few positions, not all which can be well modeled. 
This large residual density corresponds to a minor Magnesium position with insufficient density to be
stably modeled.       
;
# end Validation Reply Form
_atom_sites_solution_hydrogens     .
_atom_sites_solution_primary       ?
_atom_sites_solution_secondary     ?
loop_
  _atom_site_label
  _atom_site_type_symbol
  _atom_site_fract_x
  _atom_site_fract_y
  _atom_site_fract_z
  _atom_site_U_iso_or_equiv
  _atom_site_adp_type
  _atom_site_occupancy
  _atom_site_site_symmetry_order
  _atom_site_calc_flag
  _atom_site_refinement_flags_posn
  _atom_site_refinement_flags_adp
  _atom_site_refinement_flags_occupancy
  _atom_site_disorder_assembly
  _atom_site_disorder_group
 Mg1 Mg 0.59383(11) 0.2904(4) 0.12953(12) 0.0572(8) Uani 1 1 d . . . A 1
 Mg2 Mg 0.89786(18) 0.7628(8) 0.7135(2) 0.0200(12) Uani 0.65(2) 1 d . . . . .
 C21 C 0.8358(3) 0.4984(5) 0.6701(3) 0.0147(9) Uani 1 1 d . . . . .
 C22 C 0.8259(2) 0.5858(5) 0.5961(3) 0.0144(9) Uani 1 1 d . . . . .
 C10 C 0.5636(2) 0.1478(5) 0.5185(3) 0.0156(9) Uani 1 1 d . . . . .
 C25 C 0.8714(2) 0.5549(5) 0.5353(3) 0.0142(8) Uani 1 1 d . . . . .
 C9 C 0.5476(2) 0.2944(5) 0.4864(3) 0.0158(9) Uani 1 1 d . . . . .
 C23 C 0.7496(2) 0.6623(5) 0.5497(3) 0.0146(9) Uani 1 1 d . . . . .
 C6 C 0.6135(2) 0.5366(5) 0.4156(3) 0.0145(8) Uani 1 1 d . . . . .
 C18 C 0.6913(2) 0.4890(5) 0.6438(3) 0.0136(8) Uani 1 1 d . . . . .
 C11 C 0.6099(2) 0.1206(5) 0.6032(3) 0.0139(8) Uani 1 1 d . . . . .
 C17 C 0.6298(2) 0.3861(5) 0.6256(3) 0.0143(9) Uani 1 1 d . . . . .
 C3 C 0.5620(2) 0.1471(5) 0.3727(3) 0.0159(9) Uani 1 1 d . . . . .
 C24 C 0.6820(2) 0.5832(5) 0.5708(3) 0.0137(8) Uani 1 1 d . . . . .
 C8 C 0.5812(2) 0.4129(5) 0.5394(3) 0.0152(9) Uani 1 1 d . . . . .
 C29 C 0.8092(2) 1.0109(5) 0.6769(3) 0.0139(8) Uani 1 1 d . . . . .
 C28 C 0.8180(2) 0.9146(5) 0.6101(3) 0.0140(8) Uani 1 1 d . . . . .
 C5 C 0.5795(2) 0.4154(5) 0.3621(3) 0.0154(9) Uani 1 1 d . . . . .
 C30 C 0.8714(2) 1.1124(5) 0.6947(3) 0.0138(8) Uani 1 1 d . . . . .
 C27 C 0.7505(2) 0.8363(5) 0.5502(3) 0.0146(9) Uani 1 1 d . . . . .
 C4 C 0.5410(2) 0.2962(5) 0.3941(3) 0.0167(9) Uani 1 1 d . . . . .
 C7 C 0.6146(2) 0.5354(5) 0.5057(3) 0.0147(9) Uani 1 1 d . . . . .
 C19 C 0.7678(2) 0.4613(5) 0.7112(3) 0.0142(9) Uani 1 1 d . . . . .
 C20 C 0.7807(2) 0.2973(5) 0.7250(2) 0.0146(9) Uani 1 1 d . . . . .
 C12 C 0.6644(2) -0.0008(5) 0.6206(3) 0.0141(9) Uani 1 1 d . . . . .
 C2 C 0.6093(2) 0.1215(5) 0.3154(3) 0.0144(8) Uani 1 1 d . . . . .
 C14 C 0.7324(3) 0.0366(5) 0.7006(3) 0.0150(9) Uani 1 1 d . . . . .
 C16 C 0.6406(3) 0.2405(4) 0.6612(3) 0.0144(9) Uani 1 1 d . . . . .
 C15 C 0.7205(3) 0.2004(5) 0.7076(3) 0.0147(9) Uani 1 1 d . . . . .
 C1 C 0.6371(3) 0.2408(5) 0.2706(3) 0.0166(9) Uani 1 1 d . . . . .
 C26 C 0.9261(2) 0.4403(5) 0.5510(3) 0.0138(8) Uani 1 1 d . . . . .
 C13 C 0.6734(2) -0.0863(4) 0.5523(3) 0.0141(8) Uani 1 1 d . . . . .
 Mg4 Mg 0.9638(6) 0.9608(13) 0.7926(7) 0.018(4) Uani 0.131(8) 1 d . . . . .
 Mg3 Mg 0.9113(10) 0.845(4) 0.7297(11) 0.039(9) Uani 0.20(2) 1 d . . . . .

loop_
  _atom_site_aniso_label
  _atom_site_aniso_U_11
  _atom_site_aniso_U_22
  _atom_site_aniso_U_33
  _atom_site_aniso_U_23
  _atom_site_aniso_U_13
  _atom_site_aniso_U_12
 Mg1 0.0155(9) 0.127(2) 0.0253(10) 0.0362(12) -0.0016(7) -0.0133(11)
 Mg2 0.0190(14) 0.024(3) 0.0162(14) 0.0031(13) 0.0036(9) -0.0020(13)
 C21 0.019(2) 0.014(2) 0.0097(18) -0.0037(16) 0.0019(15) -0.0022(18)
 C22 0.0149(19) 0.014(2) 0.0138(19) -0.0016(16) 0.0017(15) -0.0015(17)
 C10 0.0106(18) 0.019(2) 0.018(2) 0.0019(17) 0.0045(15) -0.0013(17)
 C25 0.0153(19) 0.0115(19) 0.016(2) -0.0021(16) 0.0042(15) -0.0036(16)
 C9 0.0128(19) 0.019(2) 0.017(2) -0.0003(17) 0.0060(15) 0.0020(17)
 C23 0.016(2) 0.015(2) 0.0125(19) -0.0024(16) 0.0043(15) 0.0003(17)
 C6 0.0139(19) 0.013(2) 0.016(2) -0.0003(16) 0.0026(15) 0.0023(17)
 C18 0.019(2) 0.0096(19) 0.0136(19) -0.0015(15) 0.0069(16) -0.0001(17)
 C11 0.0144(19) 0.013(2) 0.0167(19) 0.0000(16) 0.0077(16) -0.0046(17)
 C17 0.0154(19) 0.016(2) 0.0127(18) -0.0007(16) 0.0058(15) 0.0000(17)
 C3 0.0141(19) 0.018(2) 0.0143(19) -0.0008(17) 0.0015(15) -0.0031(17)
 C24 0.016(2) 0.0107(19) 0.0146(19) -0.0007(15) 0.0042(15) 0.0018(16)
 C8 0.0119(18) 0.017(2) 0.017(2) -0.0003(16) 0.0041(15) 0.0047(17)
 C29 0.017(2) 0.013(2) 0.0108(18) 0.0031(15) 0.0017(15) 0.0007(17)
 C28 0.016(2) 0.0119(19) 0.0130(19) 0.0013(16) 0.0017(15) 0.0021(17)
 C5 0.015(2) 0.016(2) 0.0136(19) -0.0008(16) 0.0001(15) 0.0042(17)
 C30 0.0171(19) 0.0105(19) 0.0130(18) 0.0003(15) 0.0025(15) 0.0014(17)
 C27 0.017(2) 0.014(2) 0.0124(19) 0.0029(16) 0.0039(15) 0.0004(17)
 C4 0.015(2) 0.018(2) 0.015(2) 0.0020(17) 0.0010(15) -0.0008(18)
 C7 0.015(2) 0.014(2) 0.015(2) -0.0025(16) 0.0041(15) 0.0029(17)
 C19 0.019(2) 0.012(2) 0.0128(19) 0.0008(15) 0.0048(15) -0.0003(17)
 C20 0.019(2) 0.016(2) 0.0087(17) 0.0017(16) 0.0027(15) 0.0000(18)
 C12 0.017(2) 0.013(2) 0.0140(19) 0.0031(15) 0.0055(15) -0.0023(17)
 C2 0.016(2) 0.013(2) 0.0123(18) 0.0002(16) 0.0003(15) -0.0034(17)
 C14 0.020(2) 0.013(2) 0.013(2) 0.0021(16) 0.0055(16) 0.0004(17)
 C16 0.017(2) 0.012(2) 0.0143(19) -0.0008(16) 0.0048(15) 0.0005(17)
 C15 0.021(2) 0.015(2) 0.0093(18) -0.0022(16) 0.0061(15) -0.0016(18)
 C1 0.023(2) 0.013(2) 0.016(2) -0.0010(16) 0.0076(16) -0.0019(18)
 C26 0.0099(18) 0.016(2) 0.0147(19) -0.0007(16) 0.0017(14) -0.0043(16)
 C13 0.017(2) 0.0092(19) 0.017(2) 0.0000(16) 0.0056(16) -0.0018(17)
 Mg4 0.009(6) 0.026(7) 0.018(6) 0.009(5) 0.004(4) 0.009(5)
 Mg3 0.026(7) 0.08(2) 0.021(6) 0.033(9) 0.015(5) 0.032(10)

_geom_special_details
;
 All esds (except the esd in the dihedral angle between two l.s. planes)
 are estimated using the full covariance matrix.  The cell esds are taken
 into account individually in the estimation of esds in distances, angles
 and torsion angles; correlations between esds in cell parameters are only
 used when they are defined by crystal symmetry.  An approximate (isotropic)
 treatment of cell esds is used for estimating esds involving l.s. planes.
;
loop_
  _geom_bond_atom_site_label_1
  _geom_bond_atom_site_label_2
  _geom_bond_distance
  _geom_bond_site_symmetry_2
  _geom_bond_publ_flag
 Mg1 C9 2.681(5) 2_655 ?
 Mg1 C18 2.617(5) 6_565 ?
 Mg1 C24 2.318(5) 6_565 ?
 Mg1 C30 2.862(5) 7_666 ?
 Mg1 C4 2.294(5) 2_655 ?
 Mg1 C7 2.644(5) 6_565 ?
 Mg1 C20 2.869(4) 7_656 ?
 Mg1 C1 2.234(5) . ?
 Mg1 C13 2.806(5) 6 ?
 Mg1 Mg4 2.904(12) 7_666 ?
 Mg2 Mg2 3.463(6) 2_756 ?
 Mg2 C21 2.672(8) . ?
 Mg2 C22 2.553(7) . ?
 Mg2 C6 2.735(6) 7_666 ?
 Mg2 C29 2.729(7) . ?
 Mg2 C28 2.329(6) . ?
 Mg2 C16 2.288(5) 4_656 ?
 Mg2 C15 2.755(5) 4_656 ?
 Mg2 Mg4 3.049(12) 2_756 ?
 Mg2 Mg4 2.338(14) . ?
 Mg2 Mg3 0.81(4) . ?
 Mg2 Mg3 3.314(12) 2_756 ?
 C21 C22 1.403(6) . ?
 C21 C19 1.542(6) . ?
 C21 C2 1.439(6) 7_656 ?
 C22 C25 1.439(6) . ?
 C22 C23 1.520(6) . ?
 C10 C9 1.439(6) . ?
 C10 C11 1.409(6) . ?
 C10 C26 1.425(6) 7_656 ?
 C25 C26 1.399(6) . ?
 C25 C13 1.446(6) 7_656 ?
 C9 C8 1.409(6) . ?
 C9 C4 1.452(6) . ?
 C23 C24 1.500(6) . ?
 C23 C27 1.593(6) . ?
 C23 C27 1.601(5) 7_666 ?
 C6 C28 1.438(6) 7_666 ?
 C6 C5 1.434(6) . ?
 C6 C7 1.439(6) . ?
 C6 Mg4 2.840(11) 8_465 ?
 C6 Mg3 2.503(10) 7_666 ?
 C18 C17 1.404(6) . ?
 C18 C24 1.428(6) . ?
 C18 C19 1.506(6) . ?
 C11 C12 1.445(6) . ?
 C11 C16 1.449(6) . ?
 C17 C8 1.441(6) . ?
 C17 C16 1.444(6) . ?
 C17 Mg4 2.451(11) 4_646 ?
 C17 Mg3 2.629(15) 4_646 ?
 C3 C4 1.478(6) . ?
 C3 C2 1.407(6) . ?
 C3 C26 1.430(6) 7_656 ?
 C24 C7 1.425(6) . ?
 C8 C7 1.433(6) . ?
 C29 C28 1.426(6) . ?
 C29 C30 1.403(6) . ?
 C29 C14 1.510(6) 1_565 ?
 C29 Mg3 2.333(14) . ?
 C28 C27 1.498(6) . ?
 C28 Mg3 2.262(12) . ?
 C5 C30 1.430(6) 7_666 ?
 C5 C4 1.446(6) . ?
 C5 Mg4 2.335(12) 8_465 ?
 C5 Mg4 2.649(11) 7_666 ?
 C5 Mg3 2.67(3) 7_666 ?
 C30 C1 1.477(6) 7_666 ?
 C30 Mg4 2.384(11) . ?
 C30 Mg3 2.57(3) . ?
 C27 C13 1.533(6) 1_565 ?
 C19 C20 1.527(6) . ?
 C19 C14 1.573(6) 4_656 ?
 C20 C15 1.351(6) . ?
 C20 C1 1.466(6) 7_656 ?
 C12 C14 1.543(6) . ?
 C12 C13 1.388(6) . ?
 C2 C1 1.458(6) . ?
 C14 C15 1.524(6) . ?
 C16 C15 1.450(6) . ?
 C16 Mg3 2.371(14) 4_646 ?
 Mg4 Mg4 2.09(2) 2_756 ?
 Mg4 Mg3 1.58(4) . ?
 Mg4 Mg3 2.54(3) 2_756 ?
 Mg3 Mg3 3.01(3) 2_756 ?

loop_
  _geom_angle_atom_site_label_1
  _geom_angle_atom_site_label_2
  _geom_angle_atom_site_label_3
  _geom_angle
  _geom_angle_site_symmetry_1
  _geom_angle_site_symmetry_3
  _geom_angle_publ_flag
 C9 Mg1 C30 126.73(15) 2_655 7_666 ?
 C9 Mg1 C20 160.05(16) 2_655 7_656 ?
 C9 Mg1 C13 100.33(15) 2_655 6 ?
 C9 Mg1 Mg4 85.7(2) 2_655 7_666 ?
 C18 Mg1 C9 120.95(16) 6_565 2_655 ?
 C18 Mg1 C30 73.00(14) 6_565 7_666 ?
 C18 Mg1 C7 52.05(13) 6_565 6_565 ?
 C18 Mg1 C20 78.51(14) 6_565 7_656 ?
 C18 Mg1 C13 99.48(14) 6_565 6 ?
 C18 Mg1 Mg4 69.5(2) 6_565 7_666 ?
 C24 Mg1 C9 107.80(15) 6_565 2_655 ?
 C24 Mg1 C18 32.94(14) 6_565 6_565 ?
 C24 Mg1 C30 104.52(16) 6_565 7_666 ?
 C24 Mg1 C7 32.56(14) 6_565 6_565 ?
 C24 Mg1 C20 91.08(15) 6_565 7_656 ?
 C24 Mg1 C13 72.11(15) 6_565 6 ?
 C24 Mg1 Mg4 97.3(3) 6_565 7_666 ?
 C30 Mg1 C20 50.73(12) 7_666 7_656 ?
 C30 Mg1 Mg4 48.8(2) 7_666 7_666 ?
 C4 Mg1 C9 32.79(13) 2_655 2_655 ?
 C4 Mg1 C18 128.1(2) 2_655 6_565 ?
 C4 Mg1 C24 133.52(18) 2_655 6_565 ?
 C4 Mg1 C30 95.80(16) 2_655 7_666 ?
 C4 Mg1 C7 101.52(16) 2_655 6_565 ?
 C4 Mg1 C20 132.72(15) 2_655 7_656 ?
 C4 Mg1 C13 123.47(18) 2_655 6 ?
 C4 Mg1 Mg4 66.0(3) 2_655 7_666 ?
 C7 Mg1 C9 75.84(13) 6_565 2_655 ?
 C7 Mg1 C30 120.97(17) 6_565 7_666 ?
 C7 Mg1 C20 123.50(14) 6_565 7_656 ?
 C7 Mg1 C13 83.67(14) 6_565 6 ?
 C7 Mg1 Mg4 88.9(3) 6_565 7_666 ?
 C20 Mg1 Mg4 98.6(2) 7_656 7_666 ?
 C1 Mg1 C9 135.33(16) . 2_655 ?
 C1 Mg1 C18 91.58(16) . 6_565 ?
 C1 Mg1 C24 115.24(17) . 6_565 ?
 C1 Mg1 C30 30.65(14) . 7_666 ?
 C1 Mg1 C4 103.55(17) . 2_655 ?
 C1 Mg1 C7 143.60(18) . 6_565 ?
 C1 Mg1 C20 30.26(14) . 7_656 ?
 C1 Mg1 C13 103.55(17) . 6 ?
 C1 Mg1 Mg4 77.8(2) . 7_666 ?
 C13 Mg1 C30 129.66(14) 6 7_666 ?
 C13 Mg1 C20 78.94(14) 6 7_656 ?
 C13 Mg1 Mg4 168.9(3) 6 7_666 ?
 C21 Mg2 Mg2 113.75(13) . 2_756 ?
 C21 Mg2 C6 117.90(18) . 7_666 ?
 C21 Mg2 C29 121.93(17) . . ?
 C21 Mg2 C15 68.12(17) . 4_656 ?
 C21 Mg2 Mg4 143.5(3) . 2_756 ?
 C21 Mg2 Mg3 126.1(5) . 2_756 ?
 C22 Mg2 Mg2 121.12(17) . 2_756 ?
 C22 Mg2 C21 31.06(15) . . ?
 C22 Mg2 C6 86.85(16) . 7_666 ?
 C22 Mg2 C29 103.10(16) . . ?
 C22 Mg2 C15 85.43(19) . 4_656 ?
 C22 Mg2 Mg4 126.7(3) . 2_756 ?
 C22 Mg2 Mg3 127.9(3) . 2_756 ?
 C6 Mg2 Mg2 96.90(13) 7_666 2_756 ?
 C6 Mg2 C15 124.85(19) 7_666 4_656 ?
 C6 Mg2 Mg4 58.5(3) 7_666 2_756 ?
 C6 Mg2 Mg3 85.7(5) 7_666 2_756 ?
 C29 Mg2 Mg2 123.55(14) . 2_756 ?
 C29 Mg2 C6 49.66(16) . 7_666 ?
 C29 Mg2 C15 79.47(17) . 4_656 ?
 C29 Mg2 Mg4 84.8(3) . 2_756 ?
 C29 Mg2 Mg3 110.3(5) . 2_756 ?
 C28 Mg2 Mg2 128.03(16) . 2_756 ?
 C28 Mg2 C21 103.2(2) . . ?
 C28 Mg2 C22 76.45(17) . . ?
 C28 Mg2 C6 31.72(15) . 7_666 ?
 C28 Mg2 C29 31.49(15) . . ?
 C28 Mg2 C15 93.78(17) . 4_656 ?
 C28 Mg2 Mg4 92.4(4) . . ?
 C28 Mg2 Mg4 87.5(3) . 2_756 ?
 C28 Mg2 Mg3 115.9(5) . 2_756 ?
 C16 Mg2 Mg2 102.65(17) 4_656 2_756 ?
 C16 Mg2 C21 87.4(2) 4_656 . ?
 C16 Mg2 C22 112.8(3) 4_656 . ?
 C16 Mg2 C6 138.0(3) 4_656 7_666 ?
 C16 Mg2 C29 88.9(2) 4_656 . ?
 C16 Mg2 C28 114.7(2) 4_656 . ?
 C16 Mg2 C15 31.72(14) 4_656 4_656 ?
 C16 Mg2 Mg4 79.1(3) 4_656 . ?
 C16 Mg2 Mg4 120.0(3) 4_656 2_756 ?
 C16 Mg2 Mg3 106.7(3) 4_656 2_756 ?
 C15 Mg2 Mg2 132.86(16) 4_656 2_756 ?
 C15 Mg2 Mg4 146.9(3) 4_656 2_756 ?
 C15 Mg2 Mg3 138.3(3) 4_656 2_756 ?
 Mg4 Mg2 Mg2 41.5(2) 2_756 2_756 ?
 Mg4 Mg2 Mg2 59.7(3) . 2_756 ?
 Mg4 Mg2 C21 162.6(3) . . ?
 Mg4 Mg2 C22 166.2(3) . . ?
 Mg4 Mg2 C6 79.4(3) . 7_666 ?
 Mg4 Mg2 C29 69.1(3) . . ?
 Mg4 Mg2 C15 103.7(3) . 4_656 ?
 Mg4 Mg2 Mg4 43.2(5) . 2_756 ?
 Mg4 Mg2 Mg3 49.9(5) . 2_756 ?
 Mg4 Mg2 Mg3 28.5(7) 2_756 2_756 ?
 Mg3 Mg2 Mg2 72.7(8) . 2_756 ?
 Mg3 Mg2 Mg2 13.4(6) 2_756 2_756 ?
 Mg3 Mg2 C21 171.6(9) . . ?
 Mg3 Mg2 C22 150.7(9) . . ?
 Mg3 Mg2 C6 65.0(8) . 7_666 ?
 Mg3 Mg2 C29 53.0(9) . . ?
 Mg3 Mg2 C28 75.2(9) . . ?
 Mg3 Mg2 C16 85.9(8) . 4_656 ?
 Mg3 Mg2 C15 103.6(8) . 4_656 ?
 Mg3 Mg2 Mg4 17.2(8) . . ?
 Mg3 Mg2 Mg4 44.9(8) . 2_756 ?
 Mg3 Mg2 Mg3 60.9(11) . 2_756 ?
 C22 C21 Mg2 69.8(2) . . ?
 C22 C21 C19 123.3(4) . . ?
 C22 C21 C2 120.1(4) . 7_656 ?
 C19 C21 Mg2 113.3(3) . . ?
 C2 C21 Mg2 116.1(3) 7_656 . ?
 C2 C21 C19 108.7(4) 7_656 . ?
 C21 C22 Mg2 79.1(3) . . ?
 C21 C22 C25 119.5(4) . . ?
 C21 C22 C23 125.0(4) . . ?
 C25 C22 Mg2 111.7(3) . . ?
 C25 C22 C23 109.5(3) . . ?
 C23 C22 Mg2 105.6(3) . . ?
 C11 C10 C9 121.2(4) . . ?
 C11 C10 C26 119.6(4) . 7_656 ?
 C26 C10 C9 107.5(4) 7_656 . ?
 C22 C25 C13 111.1(4) . 7_656 ?
 C26 C25 C22 120.0(4) . . ?
 C26 C25 C13 119.8(4) . 7_656 ?
 C10 C9 Mg1 107.0(3) . 2_655 ?
 C10 C9 C4 109.3(4) . . ?
 C8 C9 Mg1 126.4(3) . 2_655 ?
 C8 C9 C10 119.5(4) . . ?
 C8 C9 C4 120.9(4) . . ?
 C4 C9 Mg1 58.8(2) . 2_655 ?
 C22 C23 C27 105.2(3) . 7_666 ?
 C22 C23 C27 116.9(3) . . ?
 C24 C23 C22 108.2(4) . . ?
 C24 C23 C27 119.3(3) . . ?
 C24 C23 C27 115.8(3) . 7_666 ?
 C27 C23 C27 89.7(3) . 7_666 ?
 Mg2 C6 Mg4 66.3(3) 7_666 8_465 ?
 C28 C6 Mg2 58.4(2) 7_666 7_666 ?
 C28 C6 C7 119.8(4) 7_666 . ?
 C28 C6 Mg4 119.1(4) 7_666 8_465 ?
 C28 C6 Mg3 63.4(5) 7_666 7_666 ?
 C5 C6 Mg2 97.5(3) . 7_666 ?
 C5 C6 C28 108.5(4) . 7_666 ?
 C5 C6 C7 119.3(4) . . ?
 C5 C6 Mg4 55.0(3) . 8_465 ?
 C5 C6 Mg3 80.6(10) . 7_666 ?
 C7 C6 Mg2 138.0(3) . 7_666 ?
 C7 C6 Mg4 117.6(3) . 8_465 ?
 C7 C6 Mg3 152.9(8) . 7_666 ?
 Mg3 C6 Mg2 17.0(8) 7_666 7_666 ?
 Mg3 C6 Mg4 56.4(6) 7_666 8_465 ?
 C17 C18 Mg1 93.0(3) . 6_566 ?
 C17 C18 C24 108.5(4) . . ?
 C17 C18 C19 121.8(4) . . ?
 C24 C18 Mg1 61.9(2) . 6_566 ?
 C24 C18 C19 125.4(4) . . ?
 C19 C18 Mg1 129.1(3) . 6_566 ?
 C10 C11 C12 120.5(4) . . ?
 C10 C11 C16 120.5(4) . . ?
 C12 C11 C16 110.1(4) . . ?
 C18 C17 C8 108.3(4) . . ?
 C18 C17 C16 121.6(4) . . ?
 C18 C17 Mg4 106.6(4) . 4_646 ?
 C18 C17 Mg3 106.6(4) . 4_646 ?
 C8 C17 C16 121.3(4) . . ?
 C8 C17 Mg4 98.9(4) . 4_646 ?
 C8 C17 Mg3 129.8(6) . 4_646 ?
 C16 C17 Mg4 94.7(4) . 4_646 ?
 C16 C17 Mg3 63.6(9) . 4_646 ?
 Mg4 C17 Mg3 36.1(9) 4_646 4_646 ?
 C2 C3 C4 122.0(4) . . ?
 C2 C3 C26 119.0(4) . 7_656 ?
 C26 C3 C4 107.9(4) 7_656 . ?
 C23 C24 Mg1 119.9(3) . 6_566 ?
 C18 C24 Mg1 85.1(3) . 6_566 ?
 C18 C24 C23 123.2(4) . . ?
 C7 C24 Mg1 86.4(3) . 6_566 ?
 C7 C24 C23 122.4(4) . . ?
 C7 C24 C18 108.0(4) . . ?
 C9 C8 C17 119.7(4) . . ?
 C9 C8 C7 121.6(4) . . ?
 C7 C8 C17 107.3(4) . . ?
 C28 C29 Mg2 58.6(2) . . ?
 C28 C29 C14 124.3(4) . 1_565 ?
 C28 C29 Mg3 69.2(7) . . ?
 C30 C29 Mg2 98.1(3) . . ?
 C30 C29 C28 109.5(4) . . ?
 C30 C29 C14 122.7(4) . 1_565 ?
 C30 C29 Mg3 83.0(10) . . ?
 C14 C29 Mg2 124.8(3) 1_565 . ?
 C14 C29 Mg3 131.2(5) 1_565 . ?
 Mg3 C29 Mg2 16.0(9) . . ?
 C6 C28 Mg2 89.9(3) 7_666 . ?
 C6 C28 C27 123.0(4) 7_666 . ?
 C6 C28 Mg3 81.9(5) 7_666 . ?
 C29 C28 Mg2 89.9(3) . . ?
 C29 C28 C6 106.5(4) . 7_666 ?
 C29 C28 C27 123.7(4) . . ?
 C29 C28 Mg3 74.7(8) . . ?
 C27 C28 Mg2 113.4(3) . . ?
 C27 C28 Mg3 133.0(10) . . ?
 Mg3 C28 Mg2 20.2(9) . . ?
 C6 C5 C4 122.1(4) . . ?
 C6 C5 Mg4 101.6(4) . 7_666 ?
 C6 C5 Mg4 94.8(4) . 8_465 ?
 C6 C5 Mg3 67.5(8) . 7_666 ?
 C30 C5 C6 107.1(4) 7_666 . ?
 C30 C5 C4 120.3(4) 7_666 . ?
 C30 C5 Mg4 63.5(3) 7_666 7_666 ?
 C30 C5 Mg4 112.0(4) 7_666 8_465 ?
 C30 C5 Mg3 70.3(5) 7_666 7_666 ?
 C4 C5 Mg4 96.3(4) . 8_465 ?
 C4 C5 Mg4 127.6(4) . 7_666 ?
 C4 C5 Mg3 156.6(5) . 7_666 ?
 Mg4 C5 Mg4 49.1(5) 8_465 7_666 ?
 Mg4 C5 Mg3 34.6(8) 7_666 7_666 ?
 Mg4 C5 Mg3 60.5(4) 8_465 7_666 ?
 C29 C30 Mg1 111.2(3) . 7_666 ?
 C29 C30 C5 108.4(4) . 7_666 ?
 C29 C30 C1 122.1(4) . 7_666 ?
 C29 C30 Mg4 96.1(4) . . ?
 C29 C30 Mg3 64.2(6) . . ?
 C5 C30 Mg1 132.3(3) 7_666 7_666 ?
 C5 C30 C1 122.5(4) 7_666 7_666 ?
 C5 C30 Mg4 84.0(4) 7_666 . ?
 C5 C30 Mg3 78.1(3) 7_666 . ?
 C1 C30 Mg1 50.5(2) 7_666 7_666 ?
 C1 C30 Mg4 113.6(4) 7_666 . ?
 C1 C30 Mg3 146.6(6) 7_666 . ?
 Mg4 C30 Mg1 66.5(3) . 7_666 ?
 Mg4 C30 Mg3 37.0(7) . . ?
 Mg3 C30 Mg1 96.1(5) . 7_666 ?
 C23 C27 C23 90.3(3) . 7_666 ?
 C28 C27 C23 119.2(3) . . ?
 C28 C27 C23 115.5(3) . 7_666 ?
 C28 C27 C13 108.5(4) . 1_565 ?
 C13 C27 C23 104.3(3) 1_565 7_666 ?
 C13 C27 C23 117.1(3) 1_565 . ?
 C9 C4 Mg1 88.4(3) . 2_655 ?
 C9 C4 C3 105.6(4) . . ?
 C3 C4 Mg1 104.4(3) . 2_655 ?
 C5 C4 Mg1 120.9(3) . 2_655 ?
 C5 C4 C9 116.7(4) . . ?
 C5 C4 C3 116.6(4) . . ?
 C6 C7 Mg1 141.2(3) . 6_566 ?
 C24 C7 Mg1 61.1(2) . 6_566 ?
 C24 C7 C6 121.5(4) . . ?
 C24 C7 C8 107.9(4) . . ?
 C8 C7 Mg1 92.3(3) . 6_566 ?
 C8 C7 C6 118.9(4) . . ?
 C21 C19 C14 118.0(3) . 4_656 ?
 C18 C19 C21 107.4(3) . . ?
 C18 C19 C20 109.9(3) . . ?
 C18 C19 C14 111.1(3) . 4_656 ?
 C20 C19 C21 100.2(3) . . ?
 C20 C19 C14 109.6(3) . 4_656 ?
 C19 C20 Mg1 116.5(3) . 7_656 ?
 C15 C20 Mg1 112.0(3) . 7_656 ?
 C15 C20 C19 122.6(4) . . ?
 C15 C20 C1 124.0(4) . 7_656 ?
 C1 C20 Mg1 50.2(2) 7_656 7_656 ?
 C1 C20 C19 110.3(4) 7_656 . ?
 C11 C12 C14 108.5(4) . . ?
 C13 C12 C11 119.2(4) . . ?
 C13 C12 C14 124.0(4) . . ?
 C21 C2 C1 110.9(4) 7_656 . ?
 C3 C2 C21 120.3(4) . 7_656 ?
 C3 C2 C1 121.7(4) . . ?
 C29 C14 C19 111.7(3) 1_545 4_646 ?
 C29 C14 C12 107.6(3) 1_545 . ?
 C29 C14 C15 108.7(4) 1_545 . ?
 C12 C14 C19 117.9(4) . 4_646 ?
 C15 C14 C19 109.4(3) . 4_646 ?
 C15 C14 C12 100.9(3) . . ?
 Mg2 C16 Mg3 19.9(8) 4_646 4_646 ?
 C11 C16 Mg2 119.0(3) . 4_646 ?
 C11 C16 C15 106.5(4) . . ?
 C11 C16 Mg3 128.9(5) . 4_646 ?
 C17 C16 Mg2 103.1(3) . 4_646 ?
 C17 C16 C11 117.3(4) . . ?
 C17 C16 C15 116.5(4) . . ?
 C17 C16 Mg3 83.4(10) . 4_646 ?
 C15 C16 Mg2 92.2(3) . 4_646 ?
 C15 C16 Mg3 103.2(7) . 4_646 ?
 C20 C15 Mg2 114.2(3) . 4_646 ?
 C20 C15 C14 123.2(4) . . ?
 C20 C15 C16 122.4(4) . . ?
 C14 C15 Mg2 111.9(3) . 4_646 ?
 C16 C15 Mg2 56.1(2) . 4_646 ?
 C16 C15 C14 110.2(4) . . ?
 C30 C1 Mg1 98.9(3) 7_666 . ?
 C20 C1 Mg1 99.6(3) 7_656 . ?
 C20 C1 C30 113.1(4) 7_656 7_666 ?
 C2 C1 Mg1 125.5(3) . . ?
 C2 C1 C30 114.7(4) . 7_666 ?
 C2 C1 C20 104.4(4) . 7_656 ?
 C10 C26 C3 109.4(4) 7_656 7_656 ?
 C25 C26 C10 120.3(4) . 7_656 ?
 C25 C26 C3 121.0(4) . 7_656 ?
 C25 C13 Mg1 110.7(3) 7_656 6_556 ?
 C25 C13 C27 109.2(3) 7_656 1_545 ?
 C27 C13 Mg1 104.1(3) 1_545 6_556 ?
 C12 C13 Mg1 81.8(3) . 6_556 ?
 C12 C13 C25 120.5(4) . 7_656 ?
 C12 C13 C27 124.1(4) . 1_545 ?
 Mg1 Mg4 Mg2 148.1(4) 7_666 2_756 ?
 Mg2 Mg4 Mg1 131.6(4) . 7_666 ?
 Mg2 Mg4 Mg2 78.8(4) . 2_756 ?
 Mg2 Mg4 C6 128.3(5) . 8_566 ?
 Mg2 Mg4 C17 76.6(4) . 4_656 ?
 Mg2 Mg4 C5 81.1(4) . 7_666 ?
 Mg2 Mg4 C30 86.6(4) . . ?
 Mg2 Mg4 Mg3 85.5(6) . 2_756 ?
 C6 Mg4 Mg1 93.3(4) 8_566 7_666 ?
 C6 Mg4 Mg2 55.2(2) 8_566 2_756 ?
 C17 Mg4 Mg1 68.4(3) 4_656 7_666 ?
 C17 Mg4 Mg2 120.0(4) 4_656 2_756 ?
 C17 Mg4 C6 104.9(4) 4_656 8_566 ?
 C17 Mg4 C5 123.5(4) 4_656 7_666 ?
 C17 Mg4 Mg3 132.8(9) 4_656 2_756 ?
 C5 Mg4 Mg1 76.7(4) 8_566 7_666 ?
 C5 Mg4 Mg1 91.1(3) 7_666 7_666 ?
 C5 Mg4 Mg2 151.6(5) 8_566 . ?
 C5 Mg4 Mg2 105.1(4) 7_666 2_756 ?
 C5 Mg4 Mg2 72.9(3) 8_566 2_756 ?
 C5 Mg4 C6 129.2(4) 7_666 8_566 ?
 C5 Mg4 C6 30.21(19) 8_566 8_566 ?
 C5 Mg4 C17 119.9(5) 8_566 4_656 ?
 C5 Mg4 C5 103.8(4) 8_566 7_666 ?
 C5 Mg4 C30 112.7(5) 8_566 . ?
 C5 Mg4 Mg3 66.3(5) 8_566 2_756 ?
 C30 Mg4 Mg1 64.7(3) . 7_666 ?
 C30 Mg4 Mg2 137.3(5) . 2_756 ?
 C30 Mg4 C6 142.9(5) . 8_566 ?
 C30 Mg4 C17 94.6(4) . 4_656 ?
 C30 Mg4 C5 32.47(19) . 7_666 ?
 C30 Mg4 Mg3 127.9(8) . 2_756 ?
 Mg4 Mg4 Mg1 128.2(2) 2_756 7_666 ?
 Mg4 Mg4 Mg2 86.8(5) 2_756 . ?
 Mg4 Mg4 Mg2 50.0(4) 2_756 2_756 ?
 Mg4 Mg4 C6 81.1(6) 2_756 8_566 ?
 Mg4 Mg4 C17 162.6(4) 2_756 4_656 ?
 Mg4 Mg4 C5 57.6(5) 2_756 7_666 ?
 Mg4 Mg4 C5 73.3(5) 2_756 8_566 ?
 Mg4 Mg4 C30 89.7(6) 2_756 . ?
 Mg4 Mg4 Mg3 38.5(8) 2_756 2_756 ?
 Mg3 Mg4 Mg1 126.2(7) . 7_666 ?
 Mg3 Mg4 Mg1 143.0(6) 2_756 7_666 ?
 Mg3 Mg4 Mg2 85.1(7) . 2_756 ?
 Mg3 Mg4 Mg2 8.7(6) . . ?
 Mg3 Mg4 Mg2 13.0(7) 2_756 2_756 ?
 Mg3 Mg4 C6 55.1(3) 2_756 8_566 ?
 Mg3 Mg4 C6 136.5(8) . 8_566 ?
 Mg3 Mg4 C17 78.1(6) . 4_656 ?
 Mg3 Mg4 C5 156.5(8) . 8_566 ?
 Mg3 Mg4 C5 73.5(7) . 7_666 ?
 Mg3 Mg4 C5 95.4(7) 2_756 7_666 ?
 Mg3 Mg4 C30 78.0(7) . . ?
 Mg3 Mg4 Mg4 86.3(7) . 2_756 ?
 Mg3 Mg4 Mg3 90.5(8) . 2_756 ?
 Mg2 Mg3 Mg2 93.8(8) . 2_756 ?
 Mg2 Mg3 C6 98.0(14) . 7_666 ?
 Mg2 Mg3 C17 107.1(12) . 4_656 ?
 Mg2 Mg3 C29 111.0(16) . . ?
 Mg2 Mg3 C28 84.6(16) . . ?
 Mg2 Mg3 C5 129.8(12) . 7_666 ?
 Mg2 Mg3 C30 140.8(14) . . ?
 Mg2 Mg3 C16 74.3(12) . 4_656 ?
 Mg2 Mg3 Mg4 122.2(11) . 2_756 ?
 Mg2 Mg3 Mg4 154.1(11) . . ?
 Mg2 Mg3 Mg3 105.5(8) . 2_756 ?
 C6 Mg3 Mg2 105.7(4) 7_666 2_756 ?
 C6 Mg3 C17 137.4(10) 7_666 4_656 ?
 C6 Mg3 C5 31.9(3) 7_666 7_666 ?
 C6 Mg3 C30 53.9(4) 7_666 . ?
 C6 Mg3 Mg4 68.5(5) 7_666 2_756 ?
 C6 Mg3 Mg3 96.9(4) 7_666 2_756 ?
 C17 Mg3 Mg2 106.2(6) 4_656 2_756 ?
 C17 Mg3 C5 115.8(13) 4_656 7_666 ?
 C17 Mg3 Mg3 108.4(10) 4_656 2_756 ?
 C29 Mg3 Mg2 150.4(13) . 2_756 ?
 C29 Mg3 C6 56.5(3) . 7_666 ?
 C29 Mg3 C17 82.2(6) . 4_656 ?
 C29 Mg3 C5 54.1(5) . 7_666 ?
 C29 Mg3 C30 32.8(4) . . ?
 C29 Mg3 C16 97.2(4) . 4_656 ?
 C29 Mg3 Mg4 106.4(12) . 2_756 ?
 C29 Mg3 Mg3 136.9(7) . 2_756 ?
 C28 Mg3 Mg2 138.6(4) . 2_756 ?
 C28 Mg3 C6 34.66(19) . 7_666 ?
 C28 Mg3 C17 113.7(4) . 4_656 ?
 C28 Mg3 C29 36.1(2) . . ?
 C28 Mg3 C5 55.6(4) . 7_666 ?
 C28 Mg3 C30 56.6(4) . . ?
 C28 Mg3 C16 114.0(8) . 4_656 ?
 C28 Mg3 Mg4 102.7(7) . 2_756 ?
 C28 Mg3 Mg3 131.4(5) . 2_756 ?
 C5 Mg3 Mg2 97.8(6) 7_666 2_756 ?
 C5 Mg3 Mg3 84.9(3) 7_666 2_756 ?
 C30 Mg3 Mg2 118.2(11) . 2_756 ?
 C30 Mg3 C17 86.1(9) . 4_656 ?
 C30 Mg3 C5 31.6(4) . 7_666 ?
 C30 Mg3 Mg3 104.7(5) . 2_756 ?
 C16 Mg3 Mg2 105.1(3) 4_656 2_756 ?
 C16 Mg3 C6 148.6(8) 4_656 7_666 ?
 C16 Mg3 C17 33.1(2) 4_656 4_656 ?
 C16 Mg3 C5 145.7(11) 4_656 7_666 ?
 C16 Mg3 C30 114.2(8) 4_656 . ?
 C16 Mg3 Mg4 141.4(10) 4_656 2_756 ?
 C16 Mg3 Mg3 114.5(8) 4_656 2_756 ?
 Mg4 Mg3 Mg2 44.7(3) 2_756 2_756 ?
 Mg4 Mg3 Mg2 66.4(6) . 2_756 ?
 Mg4 Mg3 C6 103.3(15) . 7_666 ?
 Mg4 Mg3 C17 120.5(14) 2_756 4_656 ?
 Mg4 Mg3 C17 65.8(8) . 4_656 ?
 Mg4 Mg3 C29 93.1(15) . . ?
 Mg4 Mg3 C28 121.3(16) . . ?
 Mg4 Mg3 C5 71.8(12) . 7_666 ?
 Mg4 Mg3 C5 53.1(6) 2_756 7_666 ?
 Mg4 Mg3 C30 65.0(12) . . ?
 Mg4 Mg3 C30 76.4(10) 2_756 . ?
 Mg4 Mg3 C16 94.2(8) . 4_656 ?
 Mg4 Mg3 Mg4 55.2(10) . 2_756 ?
 Mg4 Mg3 Mg3 57.7(5) . 2_756 ?
 Mg4 Mg3 Mg3 31.8(6) 2_756 2_756 ?
 Mg3 Mg3 Mg2 13.6(6) 2_756 2_756 ?

loop_
  _geom_torsion_atom_site_label_1
  _geom_torsion_atom_site_label_2
  _geom_torsion_atom_site_label_3
  _geom_torsion_atom_site_label_4
  _geom_torsion
  _geom_torsion_site_symmetry_1
  _geom_torsion_site_symmetry_2
  _geom_torsion_site_symmetry_3
  _geom_torsion_site_symmetry_4
  _geom_torsion_publ_flag
 Mg1 C9 C8 C17 145.4(3) 2_655 . . . ?
 Mg1 C9 C8 C7 -75.9(5) 2_655 . . . ?
 Mg1 C9 C4 C3 -104.5(3) 2_655 . . . ?
 Mg1 C9 C4 C5 124.1(4) 2_655 . . . ?
 Mg1 C18 C17 C8 62.3(3) 6_566 . . . ?
 Mg1 C18 C17 C16 -149.8(3) 6_566 . . . ?
 Mg1 C18 C17 Mg4 -43.3(4) 6_566 . . 4_646 ?
 Mg1 C18 C17 Mg3 -81.1(9) 6_566 . . 4_646 ?
 Mg1 C18 C24 C23 122.9(4) 6_566 . . . ?
 Mg1 C18 C24 C7 -84.6(3) 6_566 . . . ?
 Mg1 C18 C19 C21 -102.8(4) 6_566 . . . ?
 Mg1 C18 C19 C20 149.1(3) 6_566 . . . ?
 Mg1 C18 C19 C14 27.6(5) 6_566 . . 4_656 ?
 Mg1 C24 C7 C6 134.9(4) 6_566 . . . ?
 Mg1 C24 C7 C8 -82.5(3) 6_566 . . . ?
 Mg1 C20 C15 Mg2 92.7(3) 7_656 . . 4_646 ?
 Mg1 C20 C15 C14 -48.7(5) 7_656 . . . ?
 Mg1 C20 C15 C16 156.7(3) 7_656 . . . ?
 Mg1 Mg4 Mg3 Mg2 -131(2) 7_666 . . . ?
 Mg1 Mg4 Mg3 Mg2 -173.7(8) 7_666 . . 2_756 ?
 Mg1 Mg4 Mg3 C6 84.7(7) 7_666 . . 7_666 ?
 Mg1 Mg4 Mg3 C17 -51.6(7) 7_666 . . 4_656 ?
 Mg1 Mg4 Mg3 C29 28.4(9) 7_666 . . . ?
 Mg1 Mg4 Mg3 C28 52.4(10) 7_666 . . . ?
 Mg1 Mg4 Mg3 C5 78.9(7) 7_666 . . 7_666 ?
 Mg1 Mg4 Mg3 C30 45.7(6) 7_666 . . . ?
 Mg1 Mg4 Mg3 C16 -69.1(9) 7_666 . . 4_656 ?
 Mg1 Mg4 Mg3 Mg4 136.2(9) 7_666 . . 2_756 ?
 Mg1 Mg4 Mg3 Mg3 174.5(13) 7_666 . . 2_756 ?
 Mg2 Mg2 Mg3 C6 106.5(4) 2_756 . . 7_666 ?
 Mg2 Mg2 Mg3 C17 -108.3(6) 2_756 . . 4_656 ?
 Mg2 Mg2 Mg3 C29 163.6(7) 2_756 . . . ?
 Mg2 Mg2 Mg3 C28 138.5(3) 2_756 . . . ?
 Mg2 Mg2 Mg3 C5 103.4(10) 2_756 . . 7_666 ?
 Mg2 Mg2 Mg3 C30 146.3(14) 2_756 . . . ?
 Mg2 Mg2 Mg3 C16 -104.6(2) 2_756 . . 4_656 ?
 Mg2 Mg2 Mg3 Mg4 -39(2) 2_756 . . . ?
 Mg2 Mg2 Mg3 Mg4 36.9(7) 2_756 . . 2_756 ?
 Mg2 Mg2 Mg3 Mg3 7.0(6) 2_756 . . 2_756 ?
 Mg2 C21 C22 C25 108.9(4) . . . . ?
 Mg2 C21 C22 C23 -101.5(4) . . . . ?
 Mg2 C21 C19 C18 99.3(3) . . . . ?
 Mg2 C21 C19 C20 -146.0(3) . . . . ?
 Mg2 C21 C19 C14 -27.1(5) . . . 4_656 ?
 Mg2 C22 C25 C26 88.3(4) . . . . ?
 Mg2 C22 C25 C13 -124.7(3) . . . 7_656 ?
 Mg2 C22 C23 C24 -110.7(3) . . . . ?
 Mg2 C22 C23 C27 125.0(3) . . . 7_666 ?
 Mg2 C22 C23 C27 27.4(4) . . . . ?
 Mg2 C6 C5 C30 60.8(3) 7_666 . . 7_666 ?
 Mg2 C6 C5 C4 -154.5(4) 7_666 . . . ?
 Mg2 C6 C5 Mg4 -54.0(3) 7_666 . . 8_465 ?
 Mg2 C6 C5 Mg4 -4.8(3) 7_666 . . 7_666 ?
 Mg2 C6 C5 Mg3 1.3(3) 7_666 . . 7_666 ?
 Mg2 C6 C7 Mg1 7.9(7) 7_666 . . 6_566 ?
 Mg2 C6 C7 C24 -73.8(6) 7_666 . . . ?
 Mg2 C6 C7 C8 147.6(4) 7_666 . . . ?
 Mg2 C29 C28 C6 -89.9(3) . . . 7_666 ?
 Mg2 C29 C28 C27 118.5(4) . . . . ?
 Mg2 C29 C28 Mg3 -13.4(7) . . . . ?
 Mg2 C29 C30 Mg1 -92.1(2) . . . 7_666 ?
 Mg2 C29 C30 C5 60.7(3) . . . 7_666 ?
 Mg2 C29 C30 C1 -147.9(3) . . . 7_666 ?
 Mg2 C29 C30 Mg4 -25.0(3) . . . . ?
 Mg2 C29 C30 Mg3 -5.6(4) . . . . ?
 Mg2 C28 C27 C23 -118.0(3) . . . 7_666 ?
 Mg2 C28 C27 C23 -12.0(5) . . . . ?
 Mg2 C28 C27 C13 125.4(3) . . . 1_565 ?
 Mg2 C16 C15 C20 -99.1(4) 4_646 . . . ?
 Mg2 C16 C15 C14 103.4(3) 4_646 . . . ?
 Mg2 Mg4 Mg3 Mg2 43(3) 2_756 . . . ?
 Mg2 Mg4 Mg3 Mg2 -43(3) . . . 2_756 ?
 Mg2 Mg4 Mg3 C6 -144(3) . . . 7_666 ?
 Mg2 Mg4 Mg3 C6 -101.6(5) 2_756 . . 7_666 ?
 Mg2 Mg4 Mg3 C17 122.1(3) 2_756 . . 4_656 ?
 Mg2 Mg4 Mg3 C17 79(3) . . . 4_656 ?
 Mg2 Mg4 Mg3 C29 159(3) . . . . ?
 Mg2 Mg4 Mg3 C29 -157.9(3) 2_756 . . . ?
 Mg2 Mg4 Mg3 C28 -177(3) . . . . ?
 Mg2 Mg4 Mg3 C28 -133.9(5) 2_756 . . . ?
 Mg2 Mg4 Mg3 C5 -150(3) . . . 7_666 ?
 Mg2 Mg4 Mg3 C5 -107.3(3) 2_756 . . 7_666 ?
 Mg2 Mg4 Mg3 C30 -140.6(4) 2_756 . . . ?
 Mg2 Mg4 Mg3 C30 177(3) . . . . ?
 Mg2 Mg4 Mg3 C16 62(3) . . . 4_656 ?
 Mg2 Mg4 Mg3 C16 104.7(4) 2_756 . . 4_656 ?
 Mg2 Mg4 Mg3 Mg4 -93(3) . . . 2_756 ?
 Mg2 Mg4 Mg3 Mg4 -50.1(4) 2_756 . . 2_756 ?
 Mg2 Mg4 Mg3 Mg3 -11.8(7) 2_756 . . 2_756 ?
 Mg2 Mg4 Mg3 Mg3 -55(3) . . . 2_756 ?
 C21 C22 C25 C26 -1.2(6) . . . . ?
 C21 C22 C25 C13 145.7(4) . . . 7_656 ?
 C21 C22 C23 C24 -23.2(6) . . . . ?
 C21 C22 C23 C27 -147.5(4) . . . 7_666 ?
 C21 C22 C23 C27 115.0(5) . . . . ?
 C21 C19 C20 Mg1 77.9(3) . . . 7_656 ?
 C21 C19 C20 C15 -137.4(4) . . . . ?
 C21 C19 C20 C1 23.3(4) . . . 7_656 ?
 C21 C2 C1 Mg1 101.2(4) 7_656 . . . ?
 C21 C2 C1 C30 -136.3(4) 7_656 . . 7_666 ?
 C21 C2 C1 C20 -12.0(5) 7_656 . . 7_656 ?
 C22 Mg2 Mg3 Mg2 -123.5(15) . . . 2_756 ?
 C22 Mg2 Mg3 C6 -17.1(19) . . . 7_666 ?
 C22 Mg2 Mg3 C17 128.2(13) . . . 4_656 ?
 C22 Mg2 Mg3 C29 40(2) . . . . ?
 C22 Mg2 Mg3 C28 15.0(17) . . . . ?
 C22 Mg2 Mg3 C5 -20(3) . . . 7_666 ?
 C22 Mg2 Mg3 C30 23(3) . . . . ?
 C22 Mg2 Mg3 C16 131.8(16) . . . 4_656 ?
 C22 Mg2 Mg3 Mg4 -162.2(14) . . . . ?
 C22 Mg2 Mg3 Mg4 -86.7(19) . . . 2_756 ?
 C22 Mg2 Mg3 Mg3 -116.5(16) . . . 2_756 ?
 C22 C21 C19 C18 18.9(5) . . . . ?
 C22 C21 C19 C20 133.6(4) . . . . ?
 C22 C21 C19 C14 -107.5(5) . . . 4_656 ?
 C22 C25 C26 C10 142.7(4) . . . 7_656 ?
 C22 C25 C26 C3 -0.4(6) . . . 7_656 ?
 C22 C23 C24 Mg1 124.9(3) . . . 6_566 ?
 C22 C23 C24 C18 19.8(5) . . . . ?
 C22 C23 C24 C7 -128.9(4) . . . . ?
 C22 C23 C27 C23 106.9(4) . . . 7_666 ?
 C22 C23 C27 C28 -12.9(6) . . . . ?
 C22 C23 C27 C13 -146.8(4) . . . 1_565 ?
 C10 C9 C8 C17 -1.2(6) . . . . ?
 C10 C9 C8 C7 137.5(4) . . . . ?
 C10 C9 C4 Mg1 98.7(3) . . . 2_655 ?
 C10 C9 C4 C3 -5.8(5) . . . . ?
 C10 C9 C4 C5 -137.2(4) . . . . ?
 C10 C11 C12 C14 152.5(4) . . . . ?
 C10 C11 C12 C13 2.9(6) . . . . ?
 C10 C11 C16 Mg2 118.1(4) . . . 4_646 ?
 C10 C11 C16 C17 -7.2(6) . . . . ?
 C10 C11 C16 C15 -139.7(4) . . . . ?
 C10 C11 C16 Mg3 97.3(13) . . . 4_646 ?
 C25 C22 C23 C24 128.9(4) . . . . ?
 C25 C22 C23 C27 -92.9(4) . . . . ?
 C25 C22 C23 C27 4.6(5) . . . 7_666 ?
 C9 C10 C11 C12 -142.0(4) . . . . ?
 C9 C10 C11 C16 2.0(6) . . . . ?
 C9 C8 C7 Mg1 156.1(4) . . . 6_566 ?
 C9 C8 C7 C6 0.0(6) . . . . ?
 C9 C8 C7 C24 -143.6(4) . . . . ?
 C23 C22 C25 C26 -155.1(4) . . . . ?
 C23 C22 C25 C13 -8.2(5) . . . 7_656 ?
 C23 C24 C7 Mg1 -123.5(4) . . . 6_566 ?
 C23 C24 C7 C6 11.4(6) . . . . ?
 C23 C24 C7 C8 153.9(4) . . . . ?
 C6 Mg2 Mg3 Mg2 -106.5(4) 7_666 . . 2_756 ?
 C6 Mg2 Mg3 C17 145.2(8) 7_666 . . 4_656 ?
 C6 Mg2 Mg3 C29 57.1(5) 7_666 . . . ?
 C6 Mg2 Mg3 C28 32.0(3) 7_666 . . . ?
 C6 Mg2 Mg3 C5 -3.1(7) 7_666 . . 7_666 ?
 C6 Mg2 Mg3 C30 39.8(10) 7_666 . . . ?
 C6 Mg2 Mg3 C16 148.9(4) 7_666 . . 4_656 ?
 C6 Mg2 Mg3 Mg4 -145(3) 7_666 . . . ?
 C6 Mg2 Mg3 Mg4 -69.6(7) 7_666 . . 2_756 ?
 C6 Mg2 Mg3 Mg3 -99.5(8) 7_666 . . 2_756 ?
 C6 C28 C27 C23 -11.8(6) 7_666 . . 7_666 ?
 C6 C28 C27 C23 94.1(5) 7_666 . . . ?
 C6 C28 C27 C13 -128.5(4) 7_666 . . 1_565 ?
 C6 C5 C4 Mg1 97.4(4) . . . 2_655 ?
 C6 C5 C4 C9 -8.0(6) . . . . ?
 C6 C5 C4 C3 -134.0(4) . . . . ?
 C6 Mg4 Mg3 Mg2 -22.9(7) 8_566 . . 2_756 ?
 C6 Mg4 Mg3 Mg2 20(3) 8_566 . . . ?
 C6 Mg4 Mg3 C6 -124.5(9) 8_566 . . 7_666 ?
 C6 Mg4 Mg3 C17 99.1(9) 8_566 . . 4_656 ?
 C6 Mg4 Mg3 C29 179.2(7) 8_566 . . . ?
 C6 Mg4 Mg3 C28 -156.8(6) 8_566 . . . ?
 C6 Mg4 Mg3 C5 -130.3(9) 8_566 . . 7_666 ?
 C6 Mg4 Mg3 C30 -163.5(10) 8_566 . . . ?
 C6 Mg4 Mg3 C16 81.7(9) 8_566 . . 4_656 ?
 C6 Mg4 Mg3 Mg4 -73.0(9) 8_566 . . 2_756 ?
 C6 Mg4 Mg3 Mg3 -34.7(9) 8_566 . . 2_756 ?
 C18 C17 C8 C9 143.7(4) . . . . ?
 C18 C17 C8 C7 -0.3(5) . . . . ?
 C18 C17 C16 Mg2 91.7(4) . . . 4_646 ?
 C18 C17 C16 C11 -135.4(4) . . . . ?
 C18 C17 C16 C15 -7.5(6) . . . . ?
 C18 C17 C16 Mg3 94.0(5) . . . 4_646 ?
 C18 C24 C7 Mg1 83.7(3) . . . 6_566 ?
 C18 C24 C7 C6 -141.4(4) . . . . ?
 C18 C24 C7 C8 1.1(5) . . . . ?
 C18 C19 C20 Mg1 -169.3(2) . . . 7_656 ?
 C18 C19 C20 C15 -24.6(5) . . . . ?
 C18 C19 C20 C1 136.1(4) . . . 7_656 ?
 C11 C10 C9 Mg1 -150.0(3) . . . 2_655 ?
 C11 C10 C9 C8 2.3(6) . . . . ?
 C11 C10 C9 C4 147.8(4) . . . . ?
 C11 C12 C14 C29 -128.6(4) . . . 1_545 ?
 C11 C12 C14 C19 104.1(4) . . . 4_646 ?
 C11 C12 C14 C15 -14.8(4) . . . . ?
 C11 C12 C13 Mg1 -109.4(4) . . . 6_556 ?
 C11 C12 C13 C25 -0.2(6) . . . 7_656 ?
 C11 C12 C13 C27 149.1(4) . . . 1_545 ?
 C11 C16 C15 Mg2 -121.2(4) . . . 4_646 ?
 C11 C16 C15 C20 139.7(4) . . . . ?
 C11 C16 C15 C14 -17.8(5) . . . . ?
 C17 C18 C24 Mg1 83.3(3) . . . 6_566 ?
 C17 C18 C24 C23 -153.8(4) . . . . ?
 C17 C18 C24 C7 -1.3(5) . . . . ?
 C17 C18 C19 C21 131.6(4) . . . . ?
 C17 C18 C19 C20 23.5(5) . . . . ?
 C17 C18 C19 C14 -98.0(5) . . . 4_656 ?
 C17 C8 C7 Mg1 -60.8(3) . . . 6_566 ?
 C17 C8 C7 C6 143.1(4) . . . . ?
 C17 C8 C7 C24 -0.6(5) . . . . ?
 C17 C16 C15 Mg2 105.8(4) . . . 4_646 ?
 C17 C16 C15 C20 6.8(6) . . . . ?
 C17 C16 C15 C14 -150.8(4) . . . . ?
 C17 Mg4 Mg3 Mg2 -79(3) 4_656 . . . ?
 C17 Mg4 Mg3 Mg2 -122.1(3) 4_656 . . 2_756 ?
 C17 Mg4 Mg3 C6 136.3(5) 4_656 . . 7_666 ?
 C17 Mg4 Mg3 C29 80.0(3) 4_656 . . . ?
 C17 Mg4 Mg3 C28 104.1(6) 4_656 . . . ?
 C17 Mg4 Mg3 C5 130.6(4) 4_656 . . 7_666 ?
 C17 Mg4 Mg3 C30 97.4(3) 4_656 . . . ?
 C17 Mg4 Mg3 C16 -17.4(4) 4_656 . . 4_656 ?
 C17 Mg4 Mg3 Mg4 -172.2(5) 4_656 . . 2_756 ?
 C17 Mg4 Mg3 Mg3 -133.9(7) 4_656 . . 2_756 ?
 C3 C2 C1 Mg1 -108.4(4) . . . . ?
 C3 C2 C1 C30 14.1(6) . . . 7_666 ?
 C3 C2 C1 C20 138.3(4) . . . 7_656 ?
 C24 C23 C27 C23 -119.7(4) . . . 7_666 ?
 C24 C23 C27 C28 120.5(4) . . . . ?
 C24 C23 C27 C13 -13.4(5) . . . 1_565 ?
 C24 C18 C17 C8 1.0(5) . . . . ?
 C24 C18 C17 C16 148.8(4) . . . . ?
 C24 C18 C17 Mg4 -104.6(4) . . . 4_646 ?
 C24 C18 C17 Mg3 -142.4(9) . . . 4_646 ?
 C24 C18 C19 C21 -22.4(6) . . . . ?
 C24 C18 C19 C20 -130.4(4) . . . . ?
 C24 C18 C19 C14 108.1(4) . . . 4_656 ?
 C8 C9 C4 Mg1 -116.5(4) . . . 2_655 ?
 C8 C9 C4 C3 139.0(4) . . . . ?
 C8 C9 C4 C5 7.7(6) . . . . ?
 C8 C17 C16 Mg2 -124.5(4) . . . 4_646 ?
 C8 C17 C16 C11 8.3(6) . . . . ?
 C8 C17 C16 C15 136.2(4) . . . . ?
 C8 C17 C16 Mg3 -122.3(5) . . . 4_646 ?
 C29 Mg2 Mg3 Mg2 -163.6(7) . . . 2_756 ?
 C29 Mg2 Mg3 C6 -57.1(5) . . . 7_666 ?
 C29 Mg2 Mg3 C17 88.1(7) . . . 4_656 ?
 C29 Mg2 Mg3 C28 -25.1(4) . . . . ?
 C29 Mg2 Mg3 C5 -60.2(9) . . . 7_666 ?
 C29 Mg2 Mg3 C30 -17.3(8) . . . . ?
 C29 Mg2 Mg3 C16 91.8(5) . . . 4_656 ?
 C29 Mg2 Mg3 Mg4 158(3) . . . . ?
 C29 Mg2 Mg3 Mg4 -126.7(11) . . . 2_756 ?
 C29 Mg2 Mg3 Mg3 -156.6(11) . . . 2_756 ?
 C29 C28 C27 C23 -118.7(5) . . . . ?
 C29 C28 C27 C23 135.4(4) . . . 7_666 ?
 C29 C28 C27 C13 18.7(5) . . . 1_565 ?
 C29 C14 C15 Mg2 -166.8(2) 1_545 . . 4_646 ?
 C29 C14 C15 C20 -24.5(5) 1_545 . . . ?
 C29 C14 C15 C16 132.8(4) 1_545 . . . ?
 C28 Mg2 Mg3 Mg2 -138.5(3) . . . 2_756 ?
 C28 Mg2 Mg3 C6 -32.0(3) . . . 7_666 ?
 C28 Mg2 Mg3 C17 113.2(6) . . . 4_656 ?
 C28 Mg2 Mg3 C29 25.1(4) . . . . ?
 C28 Mg2 Mg3 C5 -35.1(9) . . . 7_666 ?
 C28 Mg2 Mg3 C30 7.7(11) . . . . ?
 C28 Mg2 Mg3 C16 116.9(2) . . . 4_656 ?
 C28 Mg2 Mg3 Mg4 -101.7(8) . . . 2_756 ?
 C28 Mg2 Mg3 Mg4 -177(3) . . . . ?
 C28 Mg2 Mg3 Mg3 -131.5(8) . . . 2_756 ?
 C28 C6 C5 C30 1.7(5) 7_666 . . 7_666 ?
 C28 C6 C5 C4 146.4(4) 7_666 . . . ?
 C28 C6 C5 Mg4 -113.1(4) 7_666 . . 8_465 ?
 C28 C6 C5 Mg4 -63.9(4) 7_666 . . 7_666 ?
 C28 C6 C5 Mg3 -57.8(4) 7_666 . . 7_666 ?
 C28 C6 C7 Mg1 82.4(6) 7_666 . . 6_566 ?
 C28 C6 C7 C24 0.7(6) 7_666 . . . ?
 C28 C6 C7 C8 -137.9(4) 7_666 . . . ?
 C28 C29 C30 Mg1 -151.5(3) . . . 7_666 ?
 C28 C29 C30 C5 1.3(5) . . . 7_666 ?
 C28 C29 C30 C1 152.7(4) . . . 7_666 ?
 C28 C29 C30 Mg4 -84.4(4) . . . . ?
 C28 C29 C30 Mg3 -65.0(5) . . . . ?
 C5 C6 C7 Mg1 -139.9(4) . . . 6_566 ?
 C5 C6 C7 C24 138.4(4) . . . . ?
 C5 C6 C7 C8 -0.2(6) . . . . ?
 C5 Mg4 Mg3 Mg2 63(4) 8_566 . . . ?
 C5 Mg4 Mg3 Mg2 107.3(3) 7_666 . . 2_756 ?
 C5 Mg4 Mg3 Mg2 150(3) 7_666 . . . ?
 C5 Mg4 Mg3 Mg2 20.5(19) 8_566 . . 2_756 ?
 C5 Mg4 Mg3 C6 5.8(4) 7_666 . . 7_666 ?
 C5 Mg4 Mg3 C6 -81(2) 8_566 . . 7_666 ?
 C5 Mg4 Mg3 C17 143(2) 8_566 . . 4_656 ?
 C5 Mg4 Mg3 C17 -130.6(4) 7_666 . . 4_656 ?
 C5 Mg4 Mg3 C29 -137.4(19) 8_566 . . . ?
 C5 Mg4 Mg3 C29 -50.5(4) 7_666 . . . ?
 C5 Mg4 Mg3 C28 -113(2) 8_566 . . . ?
 C5 Mg4 Mg3 C28 -26.5(6) 7_666 . . . ?
 C5 Mg4 Mg3 C5 -87(2) 8_566 . . 7_666 ?
 C5 Mg4 Mg3 C30 -120(2) 8_566 . . . ?
 C5 Mg4 Mg3 C30 -33.2(2) 7_666 . . . ?
 C5 Mg4 Mg3 C16 125.2(19) 8_566 . . 4_656 ?
 C5 Mg4 Mg3 C16 -148.0(5) 7_666 . . 4_656 ?
 C5 Mg4 Mg3 Mg4 57.3(4) 7_666 . . 2_756 ?
 C5 Mg4 Mg3 Mg4 -30(2) 8_566 . . 2_756 ?
 C5 Mg4 Mg3 Mg3 95.5(9) 7_666 . . 2_756 ?
 C5 Mg4 Mg3 Mg3 8.7(16) 8_566 . . 2_756 ?
 C30 C29 C28 Mg2 87.6(3) . . . . ?
 C30 C29 C28 C6 -2.3(5) . . . 7_666 ?
 C30 C29 C28 C27 -153.9(4) . . . . ?
 C30 C29 C28 Mg3 74.2(8) . . . . ?
 C30 C5 C4 Mg1 -122.4(4) 7_666 . . 2_655 ?
 C30 C5 C4 C9 132.2(4) 7_666 . . . ?
 C30 C5 C4 C3 6.2(6) 7_666 . . . ?
 C30 Mg4 Mg3 Mg2 140.6(4) . . . 2_756 ?
 C30 Mg4 Mg3 Mg2 -177(3) . . . . ?
 C30 Mg4 Mg3 C6 39.0(5) . . . 7_666 ?
 C30 Mg4 Mg3 C17 -97.4(3) . . . 4_656 ?
 C30 Mg4 Mg3 C29 -17.3(3) . . . . ?
 C30 Mg4 Mg3 C28 6.7(6) . . . . ?
 C30 Mg4 Mg3 C5 33.2(2) . . . 7_666 ?
 C30 Mg4 Mg3 C16 -114.8(5) . . . 4_656 ?
 C30 Mg4 Mg3 Mg4 90.5(4) . . . 2_756 ?
 C30 Mg4 Mg3 Mg3 128.8(8) . . . 2_756 ?
 C27 C23 C24 Mg1 -12.1(5) . . . 6_566 ?
 C27 C23 C24 Mg1 -117.4(3) 7_666 . . 6_566 ?
 C27 C23 C24 C18 -117.2(4) . . . . ?
 C27 C23 C24 C18 137.5(4) 7_666 . . . ?
 C27 C23 C24 C7 94.2(5) . . . . ?
 C27 C23 C24 C7 -11.1(6) 7_666 . . . ?
 C27 C23 C27 C23 0.000(0) 7_666 . . 7_666 ?
 C27 C23 C27 C28 -119.8(4) 7_666 . . . ?
 C27 C23 C27 C13 106.3(4) 7_666 . . 1_565 ?
 C4 C9 C8 C17 -142.6(4) . . . . ?
 C4 C9 C8 C7 -3.9(6) . . . . ?
 C4 C3 C2 C21 144.6(4) . . . 7_656 ?
 C4 C3 C2 C1 -3.0(6) . . . . ?
 C7 C6 C5 C30 -140.3(4) . . . 7_666 ?
 C7 C6 C5 C4 4.4(6) . . . . ?
 C7 C6 C5 Mg4 154.1(4) . . . 7_666 ?
 C7 C6 C5 Mg4 104.9(5) . . . 8_465 ?
 C7 C6 C5 Mg3 160.2(5) . . . 7_666 ?
 C19 C21 C22 Mg2 105.3(4) . . . . ?
 C19 C21 C22 C25 -145.8(4) . . . . ?
 C19 C21 C22 C23 3.7(7) . . . . ?
 C19 C18 C17 C8 -156.9(4) . . . . ?
 C19 C18 C17 C16 -9.0(6) . . . . ?
 C19 C18 C17 Mg4 97.6(5) . . . 4_646 ?
 C19 C18 C17 Mg3 59.8(10) . . . 4_646 ?
 C19 C18 C24 Mg1 -119.9(4) . . . 6_566 ?
 C19 C18 C24 C23 3.0(7) . . . . ?
 C19 C18 C24 C7 155.5(4) . . . . ?
 C19 C20 C15 Mg2 -53.3(5) . . . 4_646 ?
 C19 C20 C15 C14 165.2(4) . . . . ?
 C19 C20 C15 C16 10.6(6) . . . . ?
 C19 C14 C15 Mg2 -44.6(4) 4_646 . . 4_646 ?
 C19 C14 C15 C20 97.7(4) 4_646 . . . ?
 C19 C14 C15 C16 -105.0(4) 4_646 . . . ?
 C12 C11 C16 Mg2 -94.6(4) . . . 4_646 ?
 C12 C11 C16 C17 140.1(4) . . . . ?
 C12 C11 C16 C15 7.6(5) . . . . ?
 C12 C11 C16 Mg3 -115.4(12) . . . 4_646 ?
 C12 C14 C15 Mg2 80.3(3) . . . 4_646 ?
 C12 C14 C15 C20 -137.4(4) . . . . ?
 C12 C14 C15 C16 19.9(4) . . . . ?
 C2 C21 C22 Mg2 -109.2(4) 7_656 . . . ?
 C2 C21 C22 C25 -0.3(6) 7_656 . . . ?
 C2 C21 C22 C23 149.3(4) 7_656 . . . ?
 C2 C21 C19 C18 -130.0(4) 7_656 . . . ?
 C2 C21 C19 C20 -15.3(4) 7_656 . . . ?
 C2 C21 C19 C14 103.6(4) 7_656 . . 4_656 ?
 C2 C3 C4 Mg1 128.6(4) . . . 2_655 ?
 C2 C3 C4 C9 -139.0(4) . . . . ?
 C2 C3 C4 C5 -7.6(6) . . . . ?
 C14 C29 C28 Mg2 -113.1(4) 1_565 . . . ?
 C14 C29 C28 C6 157.0(4) 1_565 . . 7_666 ?
 C14 C29 C28 C27 5.4(6) 1_565 . . . ?
 C14 C29 C28 Mg3 -126.5(9) 1_565 . . . ?
 C14 C29 C30 Mg1 48.8(4) 1_565 . . 7_666 ?
 C14 C29 C30 C5 -158.4(4) 1_565 . . 7_666 ?
 C14 C29 C30 C1 -7.0(6) 1_565 . . 7_666 ?
 C14 C29 C30 Mg4 115.9(4) 1_565 . . . ?
 C14 C29 C30 Mg3 135.3(6) 1_565 . . . ?
 C14 C19 C20 Mg1 -46.9(4) 4_656 . . 7_656 ?
 C14 C19 C20 C15 97.8(4) 4_656 . . . ?
 C14 C19 C20 C1 -101.5(4) 4_656 . . 7_656 ?
 C14 C12 C13 Mg1 106.0(4) . . . 6_556 ?
 C14 C12 C13 C25 -144.8(4) . . . 7_656 ?
 C14 C12 C13 C27 4.5(7) . . . 1_545 ?
 C16 Mg2 Mg3 Mg2 104.6(2) 4_656 . . 2_756 ?
 C16 Mg2 Mg3 C6 -148.9(4) 4_656 . . 7_666 ?
 C16 Mg2 Mg3 C17 -3.7(5) 4_656 . . 4_656 ?
 C16 Mg2 Mg3 C29 -91.8(5) 4_656 . . . ?
 C16 Mg2 Mg3 C28 -116.9(2) 4_656 . . . ?
 C16 Mg2 Mg3 C5 -152.0(10) 4_656 . . 7_666 ?
 C16 Mg2 Mg3 C30 -109.1(13) 4_656 . . . ?
 C16 Mg2 Mg3 Mg4 141.5(8) 4_656 . . 2_756 ?
 C16 Mg2 Mg3 Mg4 66(3) 4_656 . . . ?
 C16 Mg2 Mg3 Mg3 111.6(7) 4_656 . . 2_756 ?
 C16 C11 C12 C14 5.2(5) . . . . ?
 C16 C11 C12 C13 -144.4(4) . . . . ?
 C16 C17 C8 C9 -4.3(6) . . . . ?
 C16 C17 C8 C7 -148.2(4) . . . . ?
 C15 Mg2 Mg3 Mg2 131.1(2) 4_656 . . 2_756 ?
 C15 Mg2 Mg3 C6 -122.4(3) 4_656 . . 7_666 ?
 C15 Mg2 Mg3 C17 22.8(7) 4_656 . . 4_656 ?
 C15 Mg2 Mg3 C29 -65.3(6) 4_656 . . . ?
 C15 Mg2 Mg3 C28 -90.4(3) 4_656 . . . ?
 C15 Mg2 Mg3 C5 -125.5(9) 4_656 . . 7_666 ?
 C15 Mg2 Mg3 C30 -82.6(13) 4_656 . . . ?
 C15 Mg2 Mg3 C16 26.5(3) 4_656 . . 4_656 ?
 C15 Mg2 Mg3 Mg4 92(3) 4_656 . . . ?
 C15 Mg2 Mg3 Mg4 168.0(6) 4_656 . . 2_756 ?
 C15 Mg2 Mg3 Mg3 138.1(6) 4_656 . . 2_756 ?
 C1 C20 C15 Mg2 148.7(4) 7_656 . . 4_646 ?
 C1 C20 C15 C14 7.2(6) 7_656 . . . ?
 C1 C20 C15 C16 -147.4(4) 7_656 . . . ?
 C26 C10 C9 Mg1 67.2(3) 7_656 . . 2_655 ?
 C26 C10 C9 C8 -140.5(4) 7_656 . . . ?
 C26 C10 C9 C4 5.0(5) 7_656 . . . ?
 C26 C10 C11 C12 -3.5(6) 7_656 . . . ?
 C26 C10 C11 C16 140.5(4) 7_656 . . . ?
 C26 C3 C4 Mg1 -87.9(3) 7_656 . . 2_655 ?
 C26 C3 C4 C9 4.5(5) 7_656 . . . ?
 C26 C3 C4 C5 135.9(4) 7_656 . . . ?
 C26 C3 C2 C21 4.9(6) 7_656 . . 7_656 ?
 C26 C3 C2 C1 -142.7(4) 7_656 . . . ?
 C13 C25 C26 C10 -1.4(6) 7_656 . . 7_656 ?
 C13 C25 C26 C3 -144.5(4) 7_656 . . 7_656 ?
 C13 C12 C14 C29 19.2(6) . . . 1_545 ?
 C13 C12 C14 C19 -108.0(5) . . . 4_646 ?
 C13 C12 C14 C15 133.0(4) . . . . ?
 Mg4 Mg2 Mg3 Mg2 -36.9(7) 2_756 . . 2_756 ?
 Mg4 Mg2 Mg3 Mg2 39(2) . . . 2_756 ?
 Mg4 Mg2 Mg3 C6 69.6(7) 2_756 . . 7_666 ?
 Mg4 Mg2 Mg3 C6 145(3) . . . 7_666 ?
 Mg4 Mg2 Mg3 C17 -70(2) . . . 4_656 ?
 Mg4 Mg2 Mg3 C17 -145.2(12) 2_756 . . 4_656 ?
 Mg4 Mg2 Mg3 C29 -158(3) . . . . ?
 Mg4 Mg2 Mg3 C29 126.7(11) 2_756 . . . ?
 Mg4 Mg2 Mg3 C28 177(3) . . . . ?
 Mg4 Mg2 Mg3 C28 101.7(8) 2_756 . . . ?
 Mg4 Mg2 Mg3 C5 142(3) . . . 7_666 ?
 Mg4 Mg2 Mg3 C5 66.5(10) 2_756 . . 7_666 ?
 Mg4 Mg2 Mg3 C30 -175(4) . . . . ?
 Mg4 Mg2 Mg3 C30 109.4(16) 2_756 . . . ?
 Mg4 Mg2 Mg3 C16 -66(3) . . . 4_656 ?
 Mg4 Mg2 Mg3 C16 -141.5(8) 2_756 . . 4_656 ?
 Mg4 Mg2 Mg3 Mg4 -76(3) 2_756 . . . ?
 Mg4 Mg2 Mg3 Mg4 76(3) . . . 2_756 ?
 Mg4 Mg2 Mg3 Mg3 -29.8(5) 2_756 . . 2_756 ?
 Mg4 Mg2 Mg3 Mg3 46(2) . . . 2_756 ?
 Mg4 C6 C5 C30 114.8(4) 8_465 . . 7_666 ?
 Mg4 C6 C5 C4 -100.5(5) 8_465 . . . ?
 Mg4 C6 C5 Mg4 49.2(5) 8_465 . . 7_666 ?
 Mg4 C6 C5 Mg3 55.3(4) 8_465 . . 7_666 ?
 Mg4 C6 C7 Mg1 -76.5(6) 8_465 . . 6_566 ?
 Mg4 C6 C7 C24 -158.3(4) 8_465 . . . ?
 Mg4 C6 C7 C8 63.2(5) 8_465 . . . ?
 Mg4 C17 C8 C9 -105.4(5) 4_646 . . . ?
 Mg4 C17 C8 C7 110.7(4) 4_646 . . . ?
 Mg4 C17 C16 Mg2 -21.1(3) 4_646 . . 4_646 ?
 Mg4 C17 C16 C11 111.7(4) 4_646 . . . ?
 Mg4 C17 C16 C15 -120.4(4) 4_646 . . . ?
 Mg4 C17 C16 Mg3 -18.9(4) 4_646 . . 4_646 ?
 Mg4 C5 C4 Mg1 -2.3(4) 8_465 . . 2_655 ?
 Mg4 C5 C4 Mg1 -44.1(6) 7_666 . . 2_655 ?
 Mg4 C5 C4 C9 -107.7(4) 8_465 . . . ?
 Mg4 C5 C4 C9 -149.4(4) 7_666 . . . ?
 Mg4 C5 C4 C3 126.3(4) 8_465 . . . ?
 Mg4 C5 C4 C3 84.6(5) 7_666 . . . ?
 Mg4 Mg4 Mg3 Mg2 50.1(4) 2_756 . . 2_756 ?
 Mg4 Mg4 Mg3 Mg2 93(3) 2_756 . . . ?
 Mg4 Mg4 Mg3 C6 -51.5(5) 2_756 . . 7_666 ?
 Mg4 Mg4 Mg3 C17 172.2(5) 2_756 . . 4_656 ?
 Mg4 Mg4 Mg3 C29 -107.8(5) 2_756 . . . ?
 Mg4 Mg4 Mg3 C28 -83.8(7) 2_756 . . . ?
 Mg4 Mg4 Mg3 C5 -57.3(4) 2_756 . . 7_666 ?
 Mg4 Mg4 Mg3 C30 -90.5(4) 2_756 . . . ?
 Mg4 Mg4 Mg3 C16 154.8(6) 2_756 . . 4_656 ?
 Mg4 Mg4 Mg3 Mg3 38.3(8) 2_756 . . 2_756 ?
 Mg3 Mg2 Mg3 Mg2 -7.0(6) 2_756 . . 2_756 ?
 Mg3 Mg2 Mg3 C6 99.5(8) 2_756 . . 7_666 ?
 Mg3 Mg2 Mg3 C17 -115.3(11) 2_756 . . 4_656 ?
 Mg3 Mg2 Mg3 C29 156.6(11) 2_756 . . . ?
 Mg3 Mg2 Mg3 C28 131.5(8) 2_756 . . . ?
 Mg3 Mg2 Mg3 C5 96.4(12) 2_756 . . 7_666 ?
 Mg3 Mg2 Mg3 C30 139.2(17) 2_756 . . . ?
 Mg3 Mg2 Mg3 C16 -111.6(7) 2_756 . . 4_656 ?
 Mg3 Mg2 Mg3 Mg4 -46(2) 2_756 . . . ?
 Mg3 Mg2 Mg3 Mg4 29.8(5) 2_756 . . 2_756 ?
 Mg3 C6 C5 C30 59.5(4) 7_666 . . 7_666 ?
 Mg3 C6 C5 C4 -155.8(4) 7_666 . . . ?
 Mg3 C6 C5 Mg4 -6.1(3) 7_666 . . 7_666 ?
 Mg3 C6 C5 Mg4 -55.3(4) 7_666 . . 8_465 ?
 Mg3 C6 C7 Mg1 -6.9(17) 7_666 . . 6_566 ?
 Mg3 C6 C7 C24 -88.6(16) 7_666 . . . ?
 Mg3 C6 C7 C8 132.8(15) 7_666 . . . ?
 Mg3 C17 C8 C9 -84.4(11) 4_646 . . . ?
 Mg3 C17 C8 C7 131.7(10) 4_646 . . . ?
 Mg3 C17 C16 Mg2 -2.2(4) 4_646 . . 4_646 ?
 Mg3 C17 C16 C11 130.6(5) 4_646 . . . ?
 Mg3 C17 C16 C15 -101.5(5) 4_646 . . . ?
 Mg3 C29 C28 Mg2 13.4(7) . . . . ?
 Mg3 C29 C28 C6 -76.5(8) . . . 7_666 ?
 Mg3 C29 C28 C27 131.9(9) . . . . ?
 Mg3 C29 C30 Mg1 -86.5(4) . . . 7_666 ?
 Mg3 C29 C30 C5 66.3(5) . . . 7_666 ?
 Mg3 C29 C30 C1 -142.3(5) . . . 7_666 ?
 Mg3 C29 C30 Mg4 -19.4(5) . . . . ?
 Mg3 C28 C27 C23 -123.8(6) . . . 7_666 ?
 Mg3 C28 C27 C23 -17.9(7) . . . . ?
 Mg3 C28 C27 C13 119.5(6) . . . 1_565 ?
 Mg3 C5 C4 Mg1 -10.7(19) 7_666 . . 2_655 ?
 Mg3 C5 C4 C9 -116.1(17) 7_666 . . . ?
 Mg3 C5 C4 C3 117.9(17) 7_666 . . . ?
 Mg3 C16 C15 Mg2 16.7(6) 4_646 . . 4_646 ?
 Mg3 C16 C15 C20 -82.3(9) 4_646 . . . ?
 Mg3 C16 C15 C14 120.1(8) 4_646 . . . ?
 Mg3 Mg4 Mg3 Mg2 11.8(7) 2_756 . . 2_756 ?
 Mg3 Mg4 Mg3 Mg2 55(3) 2_756 . . . ?
 Mg3 Mg4 Mg3 C6 -89.8(11) 2_756 . . 7_666 ?
 Mg3 Mg4 Mg3 C17 133.9(7) 2_756 . . 4_656 ?
 Mg3 Mg4 Mg3 C29 -146.1(7) 2_756 . . . ?
 Mg3 Mg4 Mg3 C28 -122.1(10) 2_756 . . . ?
 Mg3 Mg4 Mg3 C5 -95.5(9) 2_756 . . 7_666 ?
 Mg3 Mg4 Mg3 C30 -128.8(8) 2_756 . . . ?
 Mg3 Mg4 Mg3 C16 116.5(5) 2_756 . . 4_656 ?
 Mg3 Mg4 Mg3 Mg4 -38.3(8) 2_756 . . 2_756 ?

_shelx_res_file
;
TITL Mg4C60-50meshMg-Cu-100K-Final in C2/c #15
    Mg4C60.res
    created by SHELXL-2018/3 at 12:08:59 on 02-Jul-2021
REM reset to C2/c #15
CELL 1.54184 17.522411 9.160319 16.020807 90 105.1453 90
ZERR 4 0.001103 0.00054 0.001035 0 0.0065 0
LATT 7
SYMM -X,+Y,0.5-Z
SFAC C Mg
UNIT 240 15.86

L.S. 6
PLAN  2
fmap 2 53
acta
MORE -1
CONF
REM <olex2.extras>
REM <HklSrc "%./Mg4C60.hkl">
REM </olex2.extras>

WGHT    0.088800   22.033300
FVAR       0.28541
PART 1
MG1   2    0.593830    0.290432    0.129532    11.00000    0.01554    0.12682 =
         0.02527    0.03622   -0.00156   -0.01331
PART 0
MG2   2    0.897863    0.762795    0.713484     0.64874    0.01895    0.02417 =
         0.01617    0.00307    0.00355   -0.00201
C21   1    0.835757    0.498415    0.670054    11.00000    0.01909    0.01436 =
         0.00969   -0.00367    0.00187   -0.00216
C22   1    0.825909    0.585829    0.596051    11.00000    0.01491    0.01354 =
         0.01377   -0.00161    0.00174   -0.00147
C10   1    0.563551    0.147820    0.518544    11.00000    0.01061    0.01859 =
         0.01810    0.00191    0.00450   -0.00134
C25   1    0.871432    0.554894    0.535285    11.00000    0.01528    0.01153 =
         0.01580   -0.00214    0.00425   -0.00356
C9    1    0.547605    0.294410    0.486406    11.00000    0.01280    0.01909 =
         0.01684   -0.00027    0.00598    0.00204
C23   1    0.749585    0.662342    0.549740    11.00000    0.01646    0.01522 =
         0.01247   -0.00241    0.00432    0.00029
C6    1    0.613508    0.536577    0.415620    11.00000    0.01389    0.01344 =
         0.01561   -0.00032    0.00260    0.00233
C18   1    0.691339    0.489005    0.643817    11.00000    0.01893    0.00963 =
         0.01359   -0.00148    0.00691   -0.00005
C11   1    0.609861    0.120590    0.603216    11.00000    0.01440    0.01262 =
         0.01674    0.00005    0.00770   -0.00455
C17   1    0.629824    0.386138    0.625560    11.00000    0.01538    0.01594 =
         0.01272   -0.00072    0.00583    0.00004
C3    1    0.562034    0.147128    0.372674    11.00000    0.01406    0.01798 =
         0.01430   -0.00084    0.00154   -0.00311
C24   1    0.682017    0.583217    0.570808    11.00000    0.01595    0.01074 =
         0.01463   -0.00071    0.00419    0.00183
C8    1    0.581214    0.412932    0.539396    11.00000    0.01189    0.01707 =
         0.01693   -0.00028    0.00408    0.00465
C29   1    0.809228    1.010929    0.676854    11.00000    0.01705    0.01284 =
         0.01079    0.00311    0.00170    0.00075
C28   1    0.818030    0.914579    0.610110    11.00000    0.01610    0.01192 =
         0.01295    0.00133    0.00172    0.00206
C5    1    0.579474    0.415434    0.362074    11.00000    0.01494    0.01570 =
         0.01361   -0.00078    0.00009    0.00423
C30   1    0.871374    1.112438    0.694740    11.00000    0.01708    0.01052 =
         0.01297    0.00027    0.00254    0.00137
C27   1    0.750481    0.836252    0.550194    11.00000    0.01704    0.01427 =
         0.01243    0.00286    0.00386    0.00039
C4    1    0.541048    0.296169    0.394145    11.00000    0.01524    0.01833 =
         0.01480    0.00204    0.00097   -0.00078
C7    1    0.614563    0.535370    0.505737    11.00000    0.01507    0.01382 =
         0.01529   -0.00252    0.00413    0.00295
C19   1    0.767768    0.461287    0.711181    11.00000    0.01866    0.01161 =
         0.01282    0.00085    0.00476   -0.00035
C20   1    0.780689    0.297259    0.725013    11.00000    0.01871    0.01586 =
         0.00866    0.00173    0.00273   -0.00003
C12   1    0.664446   -0.000778    0.620556    11.00000    0.01678    0.01251 =
         0.01398    0.00314    0.00552   -0.00233
C2    1    0.609276    0.121524    0.315354    11.00000    0.01629    0.01274 =
         0.01230    0.00025    0.00025   -0.00342
C14   1    0.732400    0.036550    0.700588    11.00000    0.01966    0.01326 =
         0.01270    0.00213    0.00548    0.00044
C16   1    0.640606    0.240502    0.661215    11.00000    0.01736    0.01189 =
         0.01430   -0.00082    0.00480    0.00047
C15   1    0.720464    0.200386    0.707623    11.00000    0.02078    0.01513 =
         0.00929   -0.00223    0.00615   -0.00164
C1    1    0.637061    0.240770    0.270585    11.00000    0.02254    0.01306 =
         0.01556   -0.00097    0.00764   -0.00190
C26   1    0.926057    0.440252    0.551019    11.00000    0.00987    0.01603 =
         0.01466   -0.00067    0.00173   -0.00430
C13   1    0.673418   -0.086303    0.552265    11.00000    0.01679    0.00922 =
         0.01692    0.00004    0.00559   -0.00176
MG4   2    0.963830    0.960766    0.792556     0.13093    0.00928    0.02584 =
         0.01763    0.00873    0.00385    0.00851
MG3   2    0.911257    0.844554    0.729687     0.20314    0.02559    0.07546 =
         0.02077    0.03311    0.01491    0.03206
HKLF 4




REM  Mg4C60-50meshMg-Cu-100K-Final in C2/c #15
REM wR2 = 0.2062, GooF = S = 1.129, Restrained GooF = 1.129 for all data
REM R1 = 0.0764 for 2021 Fo > 4sig(Fo) and 0.0867 for all 2374 data
REM 310 parameters refined using 0 restraints

END

WGHT      0.0882     21.9414

REM Highest difference peak  1.440,  deepest hole -1.013,  1-sigma level  0.119
Q1    1   0.9322  0.7391  0.6647  11.00000  0.05    1.44
Q2    1   0.5779  0.3773  0.1477  11.00000  0.05    0.98
;
_shelx_res_checksum                64580
_shelx_hkl_file
;
   0   0   2    2.26    1.37
   0   0   3    3.02    1.92
   0   0   4  749.27   20.04
   0   0   5    3.16    2.97
   0   0   6   48.57    6.50
   0   0   7    2.66    2.85
   0   0   8   20.49    5.84
   0   0   9   -1.85    3.49
   0   0  10  158.26   16.65
   0   0  11   -3.52    4.08
   0   0  12 1891.44   34.25
   0   0  12 1851.47   65.46
   0   0  13    0.83    1.81
   0   0  14   47.63    5.57
   0   0  15   -2.91    2.32
   0   0  16    7.56    3.00
   0   0  17    1.13    1.70
   0   0  18  110.09    6.26
   0   2   0  989.01   19.10
   0   2   1    1.34    1.35
   0   2  -1    2.87    2.16
   0   2   2 1071.07   17.04
   0   2  -2 1062.13   20.48
   0   2   2 1113.25   21.17
   0   2   3  138.63    7.74
   0   2  -3  130.51    6.00
   0  -2   3  141.15    9.24
   0   2   3  141.64    5.49
   0   2   4  592.53   18.12
   0   2   4  541.58   11.95
   0  -2   4  570.12   21.22
   0   2   5  121.13    9.30
   0  -2   5  123.26   10.22
   0   2   5  112.72    5.68
   0  -2   6  141.25   12.08
   0   2   6  146.83   11.74
   0  -2   7   -0.80    2.77
   0   2   7    2.53    2.75
   0  -2   8  578.64   27.64
   0   2   8  561.15   27.00
   0   2   9   21.19    5.70
   0  -2   9   23.68    6.88
   0  -2  10    5.15    4.55
   0  -2  11   35.17    8.56
   0   2  12  173.56   10.08
   0  -2  13  101.22    7.40
   0   2  13  119.22    8.33
   0  -2  14  106.00    7.33
   0   2  14  124.23    8.80
   0  -2  15  200.61    9.81
   0   2  15  227.19   11.26
   0   2  16   39.54    4.76
   0  -2  16   35.65    4.12
   0   2  17  102.31    6.57
   0   2  18   73.15    4.84
   0   4   0  320.48   15.01
   0   4   1   38.38    5.06
   0   4  -2 1580.04   37.05
   0   4   2 1655.81   32.06
   0   4  -3  609.74   21.74
   0   4  -4  139.07   10.57
   0  -4   5    0.42    3.05
   0  -4   6  228.94   17.78
   0  -4   7   18.45    6.05
   0  -4   8   18.96    6.15
   0  -4   9   49.97    9.78
   0  -4  10   54.74   11.31
   0   4  10   63.81    6.91
   0   4  10   65.69    5.86
   0   4  11   52.79    5.22
   0   4  11   49.84    6.29
   0   4  12   39.95    4.82
   0   4  12   35.35    5.91
   0   4  13    6.44    2.06
   0   4  14  162.30    9.03
   0   4  15   30.12    3.74
   0   4  16  106.10    6.12
   0   4  17    7.47    1.63
   0   6   0  305.04   22.63
   0   6   1    3.84    4.13
   0   6  -1    2.95    2.91
   0   6   2    1.91    3.63
   0   6  -2    7.98    4.34
   0   6   3  135.97   15.39
   0   6  -3  108.53   11.69
   0   6   4   15.37    7.15
   0  -6   4    6.98    5.49
   0   6   5  254.32   21.07
   0  -6   5  247.07   22.05
   0   6   6  326.45   25.34
   0   6   6  330.30   13.79
   0  -6   6  303.07   25.57
   0   6   7   22.90    4.14
   0  -6   7   29.05    8.21
   0   6   8   12.14    3.30
   0  -6  -9  179.34   14.80
   0   6   9  153.65   10.14
   0   6  10   19.21    4.46
   0   6  11   89.41    8.62
   0   6  12   44.12    6.36
   0   6  13   16.25    3.83
   0   6 -14   -1.90    2.16
   0   6 -15  160.67    8.02
   0   8   0   99.41    8.34
   0   8   1   48.70    5.82
   0   8   2  518.12   18.40
   0   8   3  122.21    9.02
   0   8  -4  242.06   13.03
   0   8   4  279.71   13.77
   0   8   5  149.24    9.98
   0   8  -5  149.50   10.28
   0   8   6  202.86   11.57
   0   8  -6  202.62   12.21
   0   8  -7  137.90   10.22
   0   8   7  155.84   10.07
   0   8   8   24.23    4.72
   0   8  -8   26.27    5.21
   0   8   9   44.89    5.63
   0   8  -9   41.06    5.26
   0   8 -10   20.24    3.89
   0   8  10   17.55    3.94
   0   8 -11   12.72    2.83
   0   8  11   13.22    2.83
   0   8  12   65.47    5.61
   0   8 -12   54.63    4.88
   0   8 -13    4.65    1.50
   0  10   0   40.41    5.42
   0  10   1   25.49    3.89
   0  10  -1   23.52    3.94
   0  10   2   19.20    3.11
   0  10  -2   20.21    3.61
   0  10   3   24.92    3.65
   0  10  -3   22.77    3.54
   0  10   4  260.47   11.38
   0  10  -4  256.13   10.90
   0  10   5    2.98    1.87
   0  10  -5    2.52    1.53
   0  10   6    0.45    1.74
   0  10  -6   -0.26    1.48
   0  10  -7   41.78    3.84
   0  10   7   49.53    4.69
   0  10  -8   13.42    2.02
   0  10   8   18.51    2.87
  -1   1  19    2.67    1.33
  -1  -1  18   58.56    4.53
  -1   1  18   71.49    5.09
  -1  -1  17  116.25    7.02
  -1   1  17  129.44    7.77
  -1   1  16   31.50    4.38
  -1  -1  16   21.48    3.35
  -1   1  15  262.26   12.39
  -1  -1  15  237.86   11.45
  -1   1  14  417.49   15.92
  -1  -1  14  404.71   15.01
  -1  -1  13    8.28    2.76
  -1   1  13    6.44    2.86
  -1  -1  12  100.86    7.43
  -1  -1  12   89.16   14.25
  -1   1  12  112.58    7.88
  -1  -1  11   86.47   13.25
  -1  -1  10   38.18    8.18
  -1  -1   9  627.81   30.12
  -1   1   9  640.05   30.85
  -1  -1   8  727.12   30.09
  -1   1   8  780.08   31.02
  -1  -1   7   85.14   11.06
  -1   1   7   94.48   11.45
  -1  -1   6   89.01    8.95
  -1   1   6   99.32    9.05
  -1   1   5  302.04   14.18
  -1  -1   5  295.54   14.55
  -1  -1   4    0.84    2.38
  -1   1   4   -0.77    2.19
  -1  -1   3  710.48   18.60
   1   1  -2    7.75    1.48
  -1  -1   2    8.47    1.96
  -1   1   1    3.05    1.42
  -1   1   0  143.56    5.58
  -1   1  -1  688.43   14.37
   1  -1   2   43.70    3.87
  -1   1  -2   35.53    3.86
   1   1   2   44.53    4.28
   1  -1   3 3598.34   47.08
   1   1   4  156.41    9.22
   1  -1   4  153.99    9.45
   1  -1   5 2248.08   42.27
   1   1   5 2266.61   41.92
   1   1   6    1.98    2.36
   1  -1   6    3.56    3.13
   1  -1   7  165.35   13.47
   1   1   7  176.83   13.92
   1  -1   8   11.95    4.34
   1   1   8    9.29    3.64
   1  -1   9   11.14    5.11
   1  -1  10    3.69    3.65
   1  -1  11   53.19   10.14
   1  -1  12  205.12   21.46
   1   1  12  223.65   10.94
   1  -1  12  215.82   10.83
   1  -1  13  132.47    9.19
   1   1  13  142.22    9.57
   1  -1  14   36.98    4.98
   1   1  14   39.24    5.11
   1   1  15   44.90    5.48
   1  -1  15   38.55    4.93
   1  -1  16    0.96    1.54
   1   1  16   -1.15    1.88
   1   1  17  295.82   11.13
   1  -1  17  258.64   10.32
   1  -1  18   22.21    2.56
   1   1  18   28.89    3.22
  -1   3  18  203.74    7.52
  -1   3  17   15.45    2.93
  -1   3  16    9.19    2.59
  -1   3  15  308.22   12.73
  -1   3  14   71.72    6.27
  -1   3  13  868.44   22.76
  -1   3  12  123.46    8.22
  -1   3  12  130.89    9.90
  -1  -3  11  362.51   27.49
  -1   3  11  395.13   16.32
  -1   3  11  400.78   14.52
  -1  -3  10   53.95   10.29
  -1  -3   9   60.37   10.15
  -1  -3   8    0.69    2.32
  -1  -3   7 1063.55   37.27
  -1  -3   6  401.15   21.21
  -1   3   5  120.59    7.54
  -1  -3   5   97.26   11.66
  -1   3   5  103.20    7.88
  -1  -3   4   35.36    5.70
  -1   3   4   40.70    4.16
  -1   3   4   43.49    4.56
  -1   3   3 3126.78   42.69
   1   3  -3 3234.90   46.39
  -1   3   2    5.56    2.27
   1   3  -2    1.14    2.24
   1   3  -1  219.70   12.29
  -1   3   1  259.94   11.99
  -1   3   0   23.13    4.06
  -1   3  -1  498.24   18.50
  -1   3  -2   73.29    7.40
   1   3   2   67.86    4.58
   1   3   3    2.52    1.19
   1   3   3    4.08    2.40
   1  -3   4   44.83    6.70
  -1   3  -4   35.83    4.01
   1   3   4   46.96    6.14
   1  -3   5  498.95   22.85
   1   3   5  523.14   20.98
   1   3   6  155.71   12.11
   1  -3   6  158.31   13.33
   1  -3   7  301.69   20.48
   1   3   7  292.38   18.72
   1  -3   8   90.23   11.60
   1  -3   9  248.07   20.74
   1  -3  10   25.88    7.30
   1  -3  11   83.01   13.46
   1   3  11   80.40    7.76
   1   3  11   82.53    6.60
   1   3  12  107.85    9.38
   1   3  12  105.82    7.48
   1   3  13   23.20    4.24
   1   3  14   37.15    4.62
   1   3  15  129.19    7.95
   1   3  16   22.03    3.38
   1   3  17   43.58    3.95
   1   3  18   63.20    3.75
  -1   5  16   19.63    2.31
   1   5 -16   21.32    2.95
  -1   5  15   28.30    3.28
   1   5 -15   25.02    3.88
  -1   5  14    5.00    1.93
  -1   5  13   54.45    6.73
  -1   5  13   62.92    5.66
  -1   5  12   32.95    5.63
  -1   5  11  202.72   12.28
  -1   5  10  322.03   14.84
   1  -5 -10  386.37   23.21
  -1  -5   9   18.72    6.72
  -1   5   9   29.05    5.14
  -1  -5   8  113.65   14.81
  -1  -5   7  148.18   16.32
  -1  -5   6   84.74   12.13
  -1  -5   5  573.75   29.63
   1   5  -4   21.09    4.74
   1   5  -3  332.46   20.60
   1   5  -2   61.92    8.52
  -1   5   2   47.87    6.68
  -1   5   1  436.67   21.25
   1   5  -1  443.67   25.18
  -1   5   0  159.04   12.47
   1   5   0  146.32   13.40
   1   5   1  110.50   14.13
  -1   5  -2  144.96   12.28
   1   5   2  152.60   14.06
   1   5   3  178.20   15.85
  -1   5  -3  164.27   13.02
   1   5   4   32.28    7.16
   1  -5   4   30.68    6.94
   1   5   5   37.41    7.98
   1  -5   5   37.75    8.30
   1   5   6   24.88    6.01
   1  -5   6   28.95    7.54
   1  -5   7    4.44    4.74
   1   5   7   -1.48    2.74
   1  -5   8    5.92    4.69
   1   5   8    1.85    2.25
   1   5   9  530.84   19.04
   1   5  10   12.19    3.61
   1   5  11  152.24   11.14
   1   5  12  157.52   11.18
   1  -5  13    9.96    3.25
   1  -5  14    7.52    2.63
   1  -5  15   15.34    2.89
  -1   5 -16    5.00    1.73
   1   7 -15   23.39    2.67
   1   7 -14    3.08    1.58
  -1   7  13    3.69    2.37
   1   7 -13    4.64    2.43
   1   7 -12    6.69    2.65
  -1   7  12   10.72    3.25
  -1   7  11   18.75    4.19
   1   7 -11   16.58    4.07
   1   7 -10  151.15   10.72
  -1   7  10  154.44   10.61
   1   7  -9  189.67   12.36
  -1   7   9  201.91   11.77
   1  -7  -9  214.02   16.30
  -1   7   8   71.72    7.04
   1   7  -8   60.10    7.06
   1   7  -7  258.70   14.70
  -1   7   7  262.98   13.09
  -1   7   6   56.81    6.21
   1   7  -6   52.86    6.33
   1   7  -5    8.27    3.02
  -1   7   5    8.44    3.21
   1   7  -4    2.72    1.66
  -1   7   4    4.57    2.15
  -1   7   3   37.05    5.20
   1   7  -3   33.82    5.25
  -1   7   2   19.14    6.86
  -1   7   2   20.12    3.87
   1   7  -2   20.83    6.34
  -1   7   1   18.68    6.89
   1   7  -1   16.87    5.75
  -1   7   0  297.37   23.45
   1   7   0  294.77   23.19
   1   7   1   46.68    5.61
  -1   7  -1   57.63   10.64
   1   7   1   51.23   10.06
   1   7   2   37.33    4.95
   1   7   3  229.63   11.69
   1   7   4  410.13   16.10
  -1   7  -4  404.84   16.99
   1   7   5   68.91    6.52
  -1   7  -5   55.89    6.43
   1   7   6   -3.41    2.51
  -1   7  -6   -1.69    2.05
   1   7   7   63.79    6.60
   1   7   8  353.86   15.36
   1   7   9   24.66    5.26
   1   7  10   50.76    6.24
  -1   7 -10   39.90    5.51
   1   7  11   12.14    3.60
  -1   7 -11    4.53    2.50
  -1   7 -12   45.09    5.15
   1   7  12   53.63    5.88
  -1   7 -13    1.95    1.69
  -1   7 -14   13.47    2.45
   1   9 -11   26.65    2.88
  -1   9  11   30.26    3.47
   1   9 -10   12.58    2.43
  -1   9  10   15.24    3.07
  -1   9   9   17.65    3.55
   1   9  -9   19.16    3.07
  -1   9   8   11.82    3.15
   1   9  -8   16.50    3.23
  -1   9   7   29.90    4.91
   1   9  -7   19.37    4.00
  -1   9   6   29.93    4.60
   1   9  -6   23.81    3.76
  -1   9   5   51.57    5.83
   1   9  -5   46.15    5.06
  -1   9   4   -4.64    2.88
  -1   9   3  223.05   12.49
   1   9  -2    3.45    2.45
  -1   9   2    3.79    2.23
   1   9  -1    9.21    4.32
  -1   9   1   21.70    4.66
   1   9   0   60.49    6.69
  -1   9   0   57.23    6.11
  -1   9  -1  148.09   10.21
   1   9   1  159.05   10.25
   1   9   2   55.16    6.71
  -1   9  -2   49.25    5.64
   1   9   3   24.48    4.28
   1   9   4   19.08    3.93
   1   9   5    7.41    2.55
   1   9   6   56.41    5.97
  -1   9  -6   58.18    5.51
   1   9   7    0.91    2.69
  -1   9  -7   10.91    3.07
  -1   9  -8    2.37    1.75
   1   9   8   -1.29    1.98
   1   9   9   11.28    2.71
  -1   9  -9   10.96    2.34
   1   9  10    3.34    2.00
  -1   9 -10    0.23    1.05
   1   9  11   14.28    2.42
   1  11  -4    5.27    1.58
   1  11  -3  168.62    6.78
  -1  11   3  163.92    6.84
  -1  11   2    2.20    1.31
   1  11  -2    4.75    1.82
   1  11  -1  208.30    8.03
  -1  11   1  203.88    7.74
  -1  11   0   38.61    3.97
   1  11   0   40.16    4.08
   1  11   1  117.15    6.15
  -1  11  -1  113.90    5.71
   1  11   2    7.29    1.96
  -1  11  -2    8.33    1.79
  -1  11  -3   29.22    2.84
   1  11   3   26.65    3.00
   1  11   4    2.69    1.24
  -2   0  19    1.11    1.01
  -2   0  18   22.86    3.11
  -2   0  17    0.65    1.77
  -2   0  16  158.98    9.42
  -2   0  15    1.71    1.90
  -2   0  14  276.63   12.78
  -2   0  13    1.29    1.89
  -2   0  12   20.53    7.43
  -2   0  11    1.49    3.45
  -2   0  10  269.62   21.28
  -2   0   9    1.89    3.30
  -2   0   8 5321.34   85.43
  -2   0   7   -0.82    2.81
  -2   0   6 1187.73   31.64
  -2   0   5    3.97    2.96
  -2   0   4 1101.63   23.75
  -2   0   3    2.09    1.86
  -2   0   2  787.61   13.96
  -2   0   1    0.83    0.67
  -2   0   0 2948.94   29.23
   2   0   1    1.28    0.77
  -2   0  -1    0.09    0.80
   2   0   2 2437.62   29.13
  -2   0  -2 2388.00   28.37
   2   0   3    1.27    1.94
   2   0   4 1850.19   33.22
   2   0   5   -1.43    2.29
   2   0   6 3025.13   53.91
   2   0   7    2.47    3.01
   2   0   8   47.78    7.90
   2   0   9    2.16    2.44
   2   0  10   67.70   10.85
   2   0  11    5.47    5.12
   2   0  12  166.52    9.79
   2   0  13    0.44    1.66
   2   0  14  137.10    8.94
   2   0  15   -1.05    2.15
   2   0  16   38.72    4.58
   2   0  17   -0.22    1.29
   2   0  18  153.82    6.53
  -2   2  19   28.70    2.67
  -2   2  18   11.30    2.26
  -2   2  17   57.22    4.99
  -2   2  16    3.73    2.10
  -2   2  15    4.56    2.54
  -2   2  14   22.34    4.36
  -2   2  13   41.62    5.10
  -2   2  12   90.81    7.43
  -2  -2  12   81.64   13.27
  -2  -2  11   -0.04    3.47
  -2  -2  10   40.87    8.90
  -2  -2   9    2.33    3.47
  -2  -2   8 1187.45   40.43
  -2  -2   7   13.01    4.30
  -2   2   6   19.31    4.21
  -2  -2   6   28.58    6.89
   2   2  -6   20.80    4.06
   2   2  -5   14.15    2.70
  -2   2   5   13.67    2.81
  -2   2   5   14.50    2.70
  -2  -2   5   17.58    4.23
  -2   2   4  633.15   13.30
  -2   2   4  649.09   16.93
  -2  -2   3  240.58   11.70
  -2   2   3  224.66    9.37
   2   2  -2  246.94   10.55
  -2   2   2  213.82    9.45
  -2   2   1   92.40    5.85
  -2   2   0 3303.83   44.04
   2  -2   1   65.59    3.18
   2   2   1   72.69    6.41
  -2   2  -1   68.37    5.96
  -2   2  -2  958.99   24.06
   2   2   2  906.46   23.96
   2   2   2  991.05   23.63
   2   2   3   55.50    6.34
  -2   2  -3   50.93    5.72
   2  -2   3   50.37    5.98
   2   2   3   63.71    6.16
   2  -2   4  832.15   25.85
   2   2   4  882.16   27.34
   2   2   5   58.54    7.89
   2  -2   5   55.51    7.02
   2   2   5   60.37    6.36
   2   2   6  787.77   23.33
   2  -2   6  834.94   28.85
   2  -2   7   89.61   10.22
   2   2   7   88.12   11.22
   2  -2   8  136.75   13.71
   2   2   8  150.97   15.63
   2   2   9  546.10   31.87
   2  -2   9  537.17   28.86
   2  -2  10  947.31   41.20
   2   2  10  950.23   44.82
   2   2  11   70.28    6.06
   2  -2  11   62.33    5.79
   2  -2  11   62.70   11.40
   2   2  12   53.79    5.77
   2  -2  12   41.58    4.73
   2  -2  13  137.35    8.34
   2   2  13  140.21    8.94
   2  -2  14    0.13    1.45
   2   2  14    0.20    2.10
   2  -2  15   18.21    3.28
   2   2  15   18.96    3.41
   2  -2  16   52.64    4.90
   2   2  16   57.39    5.35
   2   2  17   21.11    3.05
   2  -2  17   22.24    2.68
   2   2  18   -1.19    1.05
  -2   4  18   93.96    4.44
  -2   4  17   70.58    4.70
   2   4 -16   47.30    4.61
  -2   4  16   56.81    4.78
  -2   4  15    2.31    1.62
  -2   4  14  202.74   10.24
  -2   4  13  231.88   11.13
  -2   4  13  233.18   13.15
  -2   4  12   19.57    3.74
  -2   4  12   12.35    3.87
  -2   4  11  630.83   18.68
  -2   4  11  660.37   21.62
   2  -4 -10    8.66    5.30
  -2  -4  10    3.39    4.24
  -2   4  10    1.31    2.34
  -2  -4   9   -1.38    2.52
  -2  -4   8   13.18    5.34
  -2  -4   7   15.09    5.80
  -2  -4   6 2037.02   53.85
  -2  -4   5   16.30    4.83
  -2   4   4  183.99   11.60
  -2   4   3 1037.01   27.35
   2   4  -3  961.55   28.57
  -2   4   2  787.72   23.95
   2   4  -2  753.87   25.92
  -2   4   1   28.76    5.04
   2   4  -1   26.02    5.08
   2   4   0  317.11   18.31
  -2   4   0  345.78   17.47
  -2   4  -1  224.14   14.15
   2   4   1  223.23   14.77
  -2   4  -2  433.61   20.49
   2   4   2  428.60   21.33
   2   4   3   55.65    7.97
   2   4   4  309.19   18.34
   2   4   4  299.92   18.64
   2  -4   4  288.22   18.55
   2  -4   5  303.04   19.53
   2   4   5  298.28   18.43
   2   4   5  294.80   18.58
   2  -4   6   51.08    8.55
   2   4   6   61.36    8.88
   2  -4   7   80.01   11.06
   2   4   7   61.02    8.91
   2  -4   8  127.96   15.09
   2   4   9    7.63    2.71
   2  -4   9    8.52    4.98
   2   4  10   13.09    2.86
   2   4  10   15.51    4.02
   2   4  11  516.67   16.06
   2   4  11  525.16   20.20
   2   4  12   39.71    4.61
   2   4  12   36.39    5.97
   2   4  13    4.28    1.98
   2   4  14  107.19    6.95
   2   4  15    2.65    1.79
   2   4  16   14.29    2.34
   2  -4  16   18.73    3.12
   2   6 -16   69.03    4.33
   2   6 -15  105.18    6.68
   2   6 -14    3.55    2.31
   2   6 -13   13.60    3.33
  -2   6  13   10.27    3.19
   2   6 -12   91.34    8.38
  -2   6  12  118.86    9.01
  -2   6  11   79.50    7.64
   2   6 -11   69.29    7.39
   2  -6 -10  960.49   37.08
  -2   6  10  792.51   23.96
   2  -6  -9    2.46    4.85
  -2   6   9    1.75    2.64
   2  -6  -8    8.52    6.13
  -2   6   8    8.74    3.26
   2  -6  -7   -0.90    5.06
   2   6  -7    3.64    2.01
  -2   6   7    3.58    2.40
  -2  -6   7    9.50    5.76
  -2  -6   6   82.29   14.17
  -2  -6   5   29.95    7.79
  -2  -6   4   85.51   13.20
   2   6  -3  115.18   12.69
   2   6  -2   76.84   10.58
   2   6  -1    1.52    2.72
   2   6   0  150.89   14.94
  -2   6  -1   59.49    9.52
   2   6   1   68.10   10.48
   2   6   2    4.32    5.20
  -2   6  -2    8.77    3.83
   2   6   3   15.03    5.82
   2  -6   4   13.12    6.37
   2   6   4   20.20    7.35
   2  -6   5   -0.96    2.75
   2   6   5    3.23    3.37
   2   6   6   71.37    6.87
   2  -6   6   94.31   16.62
   2   6   7  289.59   13.62
   2   6   8  359.79   15.76
   2  -6   8  345.45   15.55
   2   6   9  226.40   12.67
   2  -6   9  216.11   11.79
   2   6  10   34.31    5.47
   2  -6  10   34.85    5.14
   2  -6  11   44.31    5.38
   2   6  11   40.48    5.97
   2  -6  12   49.36    5.40
   2   6  12   55.37    6.51
   2  -6  13   51.30    4.97
  -2   6 -14    1.70    2.00
  -2   6 -15  157.11    7.37
   2   8 -13    1.72    1.10
  -2   8  12   15.45    3.22
   2   8 -12   18.67    3.06
  -2   8  11   56.32    5.41
   2   8 -11   54.97    5.47
   2   8 -10  251.89   12.47
  -2   8  10  277.27   12.75
   2   8  -9    8.23    3.01
  -2   8   9    8.65    2.92
  -2   8   8   15.05    4.12
   2   8  -8   10.25    4.87
   2   8  -7    1.67    1.94
  -2   8   7    2.43    2.02
  -2   8   6  693.18   20.90
   2   8  -6  690.98   22.46
   2   8  -5   23.75    4.37
  -2   8   5   27.24    4.36
  -2   8   4  752.68   22.19
   2   8  -4  751.05   22.98
  -2   8   3  168.00   10.20
   2   8  -3  153.08    9.73
  -2   8   2   32.41    5.07
  -2   8   1  346.33   14.80
   2   8   0   -1.92    2.72
  -2   8   0   -1.78    2.47
   2   8   1   54.84    6.44
   2   8   2  110.30    8.90
   2   8   3   52.57    6.41
   2   8   4  142.76    9.85
   2   8   5   13.23    3.17
  -2   8  -5   16.60    3.85
  -2   8  -6  131.86   10.00
   2   8   6  108.78    8.53
   2   8   7   99.03    8.27
  -2   8  -7   98.75    8.12
   2   8   8   69.73    6.72
  -2   8  -8   59.10    6.34
  -2   8  -9    4.17    2.30
   2   8   9    5.06    3.03
   2   8  10   38.85    5.11
  -2   8 -10   35.41    4.24
   2   8  11    2.34    2.11
  -2   8 -11    0.62    1.60
  -2   8 -12   49.62    4.30
   2  10  -9    1.83    1.06
   2  10  -8   40.37    3.21
   2  10  -8   40.64    3.61
  -2  10   8   46.76    4.24
   2  10  -7   -0.22    1.31
   2  10  -7    0.48    1.17
  -2  10   7    2.55    1.82
   2  10  -6    9.02    2.46
  -2  10   6   14.34    2.97
  -2  10   5    4.57    1.99
   2  10  -5    0.50    2.17
  -2  10   4  197.78    9.73
   2  10  -4  220.36   10.26
  -2  10   3   22.91    3.46
   2  10  -3   23.60    3.77
   2  10  -2   99.56    7.02
  -2  10   2   90.68    6.62
  -2  10   1  105.71    7.19
   2  10  -1  105.48    7.32
  -2  10   0   64.39    6.03
   2  10   0   63.56    6.11
  -2  10  -1   60.76    5.50
   2  10   1   71.25    6.07
  -2  10  -2    6.47    2.07
   2  10   2   10.23    2.58
  -2  10  -3    8.05    2.29
   2  10   3    7.96    2.66
  -2  10  -4   43.41    4.35
   2  10   4   49.61    4.93
   2  10   5   62.38    5.33
  -2  10  -5   56.49    4.51
  -2  10  -6   10.52    2.11
   2  10   6    9.09    2.41
   2  10   7   21.71    3.25
  -2  10  -7   18.01    2.35
   2  10   8    2.88    1.67
  -3   1  19    4.19    1.55
  -3   1  18   68.33    5.20
  -3  -1  18   55.65    4.30
  -3  -1  17    7.27    2.20
  -3   1  17    5.12    2.34
  -3   1  16  284.55   12.71
  -3  -1  16  259.44   11.65
  -3   1  15   73.28    7.66
  -3  -1  15   55.94    6.54
  -3   1  14  746.25   21.92
  -3  -1  14  700.38   20.28
  -3  -1  13   25.17    4.00
  -3   1  13   29.59    4.59
  -3   1  12    7.58    2.46
  -3  -1  12   12.43    6.71
  -3  -1  11  529.15   32.16
  -3  -1  10   10.07    4.67
  -3  -1   9  584.50   29.09
  -3   1   9  591.54   29.04
  -3   1   8  256.77   17.32
  -3  -1   8  258.18   17.91
  -3  -1   7   68.10   10.79
  -3   1   7   58.89   10.08
  -3   1   6  110.07    9.52
  -3  -1   6  104.40    9.46
  -3  -1   5 1380.53   31.20
  -3   1   5 1351.01   30.77
  -3  -1   4  127.68    8.12
   3   1  -4  142.33    8.44
  -3  -1   3 4620.05   53.41
   3   1  -3 4609.53   55.17
  -3  -1   2    1.01    1.33
   3   1  -2    2.73    1.97
  -3   1   2    5.15    2.28
  -3   1   1 3502.88   41.09
   3  -1  -1 3378.65   33.85
  -3   1   0   12.65    2.38
   3  -1   0   17.64    2.53
  -3  -1  -1 1634.33   17.81
  -3   1  -1 1591.66   27.36
  -3   1  -2   67.52    5.34
   3  -1   2   84.80    5.48
   3  -1   3   22.72    4.04
   3   1   3   24.24    5.78
  -3   1  -3   19.44    4.39
   3   1   4   57.85    7.43
   3  -1   4   61.01    5.84
   3  -1   5   14.61    3.67
   3  -1   6  312.56   16.50
   3  -1   7  433.35   21.70
   3  -1   8  594.88   27.57
   3   1   8  581.19   32.57
   3  -1   9  416.81   25.13
   3   1   9  425.42   29.50
   3   1  10    0.69    3.79
   3  -1  10   -0.67    3.75
   3  -1  11    4.22    3.42
   3   1  11    4.74    4.63
   3   1  11   11.07    3.08
   3  -1  11    7.72    2.71
   3  -1  12  129.31    8.58
   3   1  12  131.93    8.70
   3  -1  13  273.04   12.80
   3   1  13  281.69   12.74
   3  -1  14   32.61    4.52
   3   1  14   29.39    4.24
   3  -1  15  111.26    8.06
   3   1  15  117.79    8.28
   3   1  16   -0.02    1.66
   3  -1  16    2.79    1.96
   3   1  17  233.21    9.10
   3  -1  17  212.71    8.42
   3   1  18   10.51    1.76
  -3   3  18    2.47    1.37
  -3   3  17   14.09    3.39
  -3   3  16    5.76    1.69
  -3   3  15   71.35    7.29
  -3   3  14  115.23    8.19
  -3   3  13  129.63    9.14
  -3   3  12   -1.69    1.59
  -3   3  12   -1.74    2.20
   3  -3 -11  209.55   16.54
  -3  -3  11  160.58   18.35
  -3  -3  10    3.29    3.73
  -3  -3   9  322.94   23.23
  -3  -3   8    1.47    2.56
  -3  -3   7 1355.57   41.66
  -3   3   7 1283.93   31.63
  -3   3   6  883.26   25.10
  -3  -3   6  950.85   32.41
  -3  -3   5  170.67   13.79
  -3   3   5  160.53   10.78
  -3  -3   4   -0.15    2.42
  -3   3   4    2.89    1.67
  -3   3   3  226.32   11.42
  -3   3   2  184.79   10.30
   3   3  -2  172.44   10.82
  -3   3   1 1117.68   28.10
   3   3  -1 1096.09   28.47
  -3   3   0   23.17    4.39
   3   3   0   22.30    4.91
   3   3   1  924.34   27.85
  -3   3  -1  916.85   27.11
   3   3   2   57.94    7.56
  -3   3  -2   63.18    7.34
   3   3   2   58.15    7.07
   3   3   3 1559.27   38.40
   3  -3   3 1664.30   39.40
   3   3   3 1588.80   40.48
   3   3   4  160.02   11.92
   3  -3   4  166.15   12.25
   3   3   4  168.56   13.19
   3   3   5   12.00    4.50
   3  -3   5    8.95    3.66
   3   3   5    5.96    3.49
   3   3   6  572.76   27.22
   3   3   6  500.37   21.89
   3  -3   6  544.42   24.88
   3   3   7  523.60   28.07
   3  -3   7  477.57   25.29
   3   3   8   17.98    5.70
   3  -3   8   12.95    5.05
   3  -3   9   20.47    6.19
   3  -3  10    6.18    3.76
   3   3  10    9.82    3.80
   3   3  10   10.49    2.52
   3   3  11  605.04   18.02
   3   3  11  578.17   21.26
   3   3  12  481.60   15.97
   3   3  13  346.70   13.40
   3   3  14  233.27   10.56
   3   3  15  106.46    6.74
   3   3  16  136.22    6.83
   3   3  17   44.95    3.47
   3  -3  17   53.30    4.22
  -3   5  17   11.38    1.88
   3   5 -16  148.08    7.42
  -3   5  16  148.46    6.90
  -3   5  15   46.04    4.57
   3   5 -15   30.34    4.25
  -3   5  14   62.86    5.33
   3   5 -14   52.18    5.75
  -3   5  13  339.80   15.86
  -3   5  13  327.05   12.74
   3   5 -13  301.69   14.90
  -3   5  12   26.41    3.85
  -3   5  12   37.72    5.56
  -3   5  11   24.92    5.18
  -3   5  11   24.56    4.54
   3  -5 -11   28.30    9.01
   3  -5 -10   27.35    6.71
  -3   5  10   17.64    3.97
  -3   5   9  188.15   10.72
  -3  -5   9  169.91   18.81
  -3  -5   8   24.61    7.86
  -3  -5   7  244.41   20.74
  -3  -5   6  186.12   17.55
  -3  -5   5  261.36   20.12
  -3   5   4  127.54   11.26
  -3   5   3  130.17   11.77
  -3   5   2   38.93    6.50
   3   5  -2   39.73    6.90
   3   5  -1  767.33   30.59
  -3   5   1  760.89   29.56
   3   5   0  243.30   17.34
  -3   5   0  240.18   16.58
  -3   5  -1  924.99   34.30
   3   5   1  974.81   35.96
  -3   5  -2   98.07   11.30
   3   5   2   92.10   10.92
   3   5   3    6.77    4.45
   3  -5   4   36.09    7.83
   3   5   4   43.10    8.20
   3  -5   5   73.43   11.42
   3   5   5   73.94   10.71
   3   5   6   77.06   10.72
   3  -5   6   72.07   11.61
   3  -5   7    3.27    3.55
   3   5   7   -0.33    2.01
   3  -5   8   24.83    6.87
   3   5   8   30.07    4.77
   3  -5   8   28.50    4.57
   3  -5   9  127.26    8.92
   3   5   9  107.42    8.62
   3  -5  10  158.24    9.70
   3   5  10  136.70   10.20
   3  -5  11   28.59    4.87
   3   5  11   24.63    5.29
   3  -5  12   31.70    4.68
   3   5  12   28.03    4.44
   3  -5  13   30.82    4.80
   3  -5  14   46.70    4.74
   3  -5  15  144.81    7.56
   3   7 -15   20.75    2.63
   3   7 -14    7.29    2.23
  -3   7  13   53.56    5.53
   3   7 -13   53.69    5.64
  -3   7  12    2.58    2.03
   3   7 -12    1.51    2.14
   3   7 -11  115.90    9.10
  -3   7  11  128.09    9.25
  -3   7  10    4.71    2.88
   3   7 -10    1.61    2.50
   3  -7 -10   -0.35    4.15
   3  -7  -9  106.23   13.26
  -3   7   9  104.37    8.68
   3   7  -9  129.23   11.71
   3   7  -8   51.35    6.30
  -3   7   8   53.08    5.92
  -3   7   7   79.52    7.54
   3   7  -7   75.60    8.14
  -3   7   6   90.15    7.40
   3  -7  -6  114.93   15.77
   3   7  -6  103.94    8.69
   3  -7  -5   17.89    8.55
   3   7  -5    8.45    2.87
  -3   7   5    9.02    2.97
   3   7  -4  396.63   16.12
  -3   7   4  370.75   14.98
   3  -7  -3  225.70   19.58
  -3   7   3  238.03   11.68
   3   7  -3  209.22   11.68
   3  -7  -2    2.59    4.36
  -3   7   2    0.80    1.87
   3   7  -2   -3.15    2.13
  -3   7   1  117.47   16.04
   3  -7  -1  137.90   14.17
   3   7   0  111.62    8.11
  -3   7   0  115.31   14.59
   3   7   1  120.01    8.46
   3   7   2    6.67    1.94
   3   7   3  216.44   11.82
   3  -7   4   17.45    4.72
   3   7   4   16.60    3.78
   3  -7   5  240.27   15.15
   3   7   5  248.48   12.70
   3  -7   6    7.66    3.67
   3   7   6    5.89    2.62
   3   7   7   29.67    4.86
   3  -7   7   29.90    5.34
   3  -7   8   11.29    3.56
   3   7   8   22.77    4.50
   3  -7   9   27.87    4.48
   3   7   9   42.49    5.74
   3   7  10   24.69    4.51
   3  -7  10   22.33    4.08
   3   7  11   14.42    3.39
   3   7  12    9.94    2.55
  -3   7 -12   13.39    2.71
  -3   7 -13    4.32    1.80
  -3   7 -14   19.04    2.41
  -3   9  11  226.27    8.60
   3   9 -11  210.41    7.97
  -3   9  10    5.37    2.04
   3   9 -10    4.84    1.75
  -3   9   9    4.94    2.14
   3   9  -9    0.64    1.50
  -3   9   8    9.10    2.48
   3   9  -8    7.10    2.01
  -3   9   7   57.50    6.04
   3   9  -7   56.52    5.99
   3   9  -6   57.68    5.55
  -3   9   6   56.34    5.77
   3   9  -5    2.61    2.00
  -3   9   5    1.34    2.03
  -3   9   4   14.70    3.47
   3   9  -4   12.00    2.53
   3   9  -3    1.17    2.36
   3   9  -3    9.35    2.77
  -3   9   3    4.32    2.72
  -3   9   2   -0.21    1.94
   3   9  -2   -4.21    3.57
  -3   9   1  132.27    9.48
   3   9  -1  118.60    9.08
   3   9   0   20.12    4.35
  -3   9   0   20.21    3.99
  -3   9  -1   66.14    6.98
   3   9   1   56.14    6.84
  -3   9  -2   23.83    4.09
   3   9   2   29.75    4.86
   3   9   3   23.14    4.25
   3   9   4    1.28    2.09
   3   9   5    6.01    3.11
   3   9   6   10.09    3.29
   3   9   7   10.54    3.01
   3   9   8   13.24    3.14
  -3   9  -8    8.70    2.01
   3   9   9   11.23    2.76
  -3   9  -9   19.54    2.87
   3   9  10   21.38    2.95
   3  11  -4    0.89    1.05
   3  11  -3    7.76    1.76
   3  11  -2    5.21    1.63
   3  11  -1   75.03    4.72
   3  11   0    4.13    1.72
   3  11   1   44.33    3.63
   3  11   2   51.43    3.94
  -4   0  19   -1.90    1.09
  -4   0  18   30.09    3.55
  -4   0  17    1.20    1.53
  -4   0  16  201.35   10.56
  -4   0  15   -0.14    1.74
  -4   0  14  383.93   15.21
  -4   0  13   -1.46    1.67
  -4   0  12  362.20   27.89
  -4   0  11   -2.57    3.49
  -4   0  10   28.90    8.22
  -4   0   9    0.10    2.71
  -4   0   8  601.65   26.06
  -4   0   7    1.01    2.43
  -4   0   6  184.33   11.78
  -4   0   5    1.52    2.21
  -4   0   4  953.87   21.73
  -4   0   3    0.94    1.47
  -4   0   2  781.48   13.40
   4   0  -1    0.79    1.86
   4   0   0 9999.00   95.45
  -4   0   0 9838.39   87.74
   4   0   1    2.34    2.11
  -4   0  -1    1.32    1.40
  -4   0  -2  279.93    9.79
   4   0   2  301.98    8.62
   4   0   3   -0.36    1.38
  -4   0  -3    0.60    1.40
   4   0   4 1851.64   33.22
   4   0   5    2.04    2.25
   4   0   6   64.66    7.29
   4   0   7    1.80    2.84
   4   0   8  395.23   22.27
   4   0   9   -1.14    2.32
   4   0  11   -2.36    1.88
   4   0  12  395.16   15.29
   4   0  13    0.85    2.05
   4   0  14   68.55    6.43
   4   0  15   -0.30    1.83
   4   0  16   49.81    4.99
   4   0  17    0.74    1.24
  -4   2  19   48.89    3.62
  -4   2  18   78.54    5.39
  -4   2  17    3.09    1.88
  -4   2  16  112.89    8.19
  -4   2  15   34.53    4.75
  -4   2  14  857.12   23.85
  -4   2  13   -0.12    1.74
  -4   2  12  111.92    8.05
  -4  -2  12  102.29   15.43
  -4  -2  11   -2.02    4.00
  -4  -2  10   49.05    9.13
  -4  -2   9    5.17    4.23
  -4  -2   8   42.32    8.56
  -4  -2   7   19.50    4.98
   4   2  -7   19.12    3.98
   4   2  -6  584.18   21.09
  -4  -2   6  579.87   23.15
  -4   2   5   64.10    6.38
  -4  -2   5   69.15    7.71
   4   2  -5   77.31    7.50
  -4  -2   4  809.89   25.09
  -4   2   4  810.14   22.78
  -4  -2   3    8.04    2.26
  -4   2   3   10.29    3.28
  -4   2   2 3439.60   48.83
  -4   2   1  138.91    8.85
   4   2   0  229.73   13.35
   4  -2   0  216.44    9.51
  -4   2   0  216.64   11.25
   4   2   1  133.24   10.23
  -4   2  -1  133.54    8.99
   4  -2   2 2752.94   42.20
   4   2   2 2791.24   51.80
   4   2   2 2749.38   44.09
  -4   2  -2 2768.12   45.92
   4   2   3    2.33    2.85
  -4   2  -3    0.38    2.25
   4  -2   3    1.17    1.55
   4   2   3    4.12    2.64
   4   2   4  440.51   22.80
   4  -2   4  386.96   17.04
  -4   2  -4  419.43   19.14
   4  -2   5    1.96    2.05
   4   2   5    0.26    2.39
   4   2   6  188.70   16.80
   4  -2   6  182.96   13.54
   4   2   7  119.92   14.30
   4  -2   7  105.10   11.22
   4  -2   8   75.83   10.32
   4   2   8   79.88   12.92
   4  -2   9   27.83    6.53
   4   2   9   29.79    8.11
   4   2  10  124.16   18.29
   4  -2  10  131.29    8.19
   4   2  10  150.63    8.96
   4  -2  11   11.05    2.67
   4   2  11   15.17    3.04
   4   2  12  767.81   20.89
   4  -2  12  775.12   20.47
   4  -2  13    8.59    2.90
   4   2  13    5.00    2.24
   4  -2  14    0.37    1.55
   4   2  14   -1.37    1.76
   4  -2  15   15.94    2.93
   4   2  15   14.68    2.87
   4   2  16   13.01    2.86
   4  -2  16    6.53    2.29
   4   2  17   17.64    2.37
  -4   4  18   14.37    2.23
  -4   4  17    1.20    1.36
  -4   4  16    8.22    2.54
  -4   4  15    8.89    2.43
  -4   4  14  206.92   10.85
   4   4 -14  177.69   10.97
  -4   4  13   28.31    4.33
   4   4 -13   22.94    4.26
  -4   4  12  152.26   10.20
  -4   4  12  135.18    9.15
  -4   4  11  416.27   16.85
  -4   4  11  427.63   15.57
  -4  -4  10    8.50    4.75
   4  -4 -10   23.01    7.28
  -4  -4   9   45.94    9.18
  -4  -4   8    6.21    5.66
  -4  -4   7   39.98    7.57
  -4   4   6   30.32    5.65
  -4  -4   6   26.04    7.20
  -4  -4   5  205.83   15.94
  -4   4   5  188.11   13.17
  -4  -4   4  370.84   20.75
  -4   4   4  366.42   18.60
  -4   4   3    7.45    3.34
  -4   4   2  169.37   12.66
  -4   4   1    8.52    3.47
   4   4  -1   19.82    5.22
   4   4   0  131.83   13.50
  -4   4   0  169.85   14.37
  -4   4  -1    2.86    3.55
   4   4   1    0.80    3.27
  -4   4  -2   40.77    7.73
   4   4   2   38.90    7.22
   4   4   3  466.99   25.21
   4  -4   3  431.57   21.73
   4   4   3  405.16   21.24
  -4   4  -3  443.61   23.21
   4   4   4   12.75    4.87
   4  -4   4   12.32    4.61
   4   4   4   17.99    5.28
   4   4   5    5.94    4.24
   4   4   5    8.44    4.05
   4  -4   5    5.13    2.77
   4   4   6    8.88    5.56
   4  -4   6   10.45    5.58
   4   4   6   11.43    5.40
   4   4   7  165.49   17.18
   4  -4   7  144.00   14.69
   4  -4   8   44.75    9.19
   4   4   9    2.48    2.53
   4   4  10  426.10   18.15
   4   4  11    1.66    2.81
   4   4  11   -0.58    1.27
   4   4  12   10.24    2.51
   4   4  13   -0.09    1.43
   4  -4  14    7.50    2.74
   4   4  14    4.52    1.71
   4  -4  15  220.54    9.90
   4   4  15  177.00    7.49
   4  -4  16  115.62    6.30
   4   6 -16    8.89    1.92
   4   6 -15    6.52    2.25
   4   6 -14    4.70    2.51
  -4   6  13   10.21    2.90
   4   6 -13    6.29    2.69
  -4   6  12  572.85   19.50
   4   6 -12  524.69   19.66
   4  -6 -11   59.43    9.68
  -4   6  11   43.56    5.91
   4   6 -11   42.22    5.91
  -4   6  10  468.35   18.00
   4   6 -10  445.81   19.00
  -4   6   9   20.43    3.83
   4   6  -9   20.75    4.00
   4   6  -8    8.67    2.94
  -4   6   8   13.96    3.36
   4  -6  -7   85.00   13.65
  -4   6   7   68.37    6.14
   4   6  -7   70.77    6.97
  -4  -6   7   57.01   11.37
   4  -6  -6  287.32   23.83
   4   6  -6  254.96   13.22
  -4  -6   5  235.26   21.61
  -4  -6   4   -0.94    3.17
  -4   6   2   12.44    6.03
   4   6  -1   77.97   10.98
  -4   6   1   56.69    9.43
   4   6   0 1255.29   45.40
  -4   6   0 1230.54   44.52
   4   6   1   26.49    7.05
  -4   6  -1   21.34    6.35
   4   6   2   19.33    8.12
   4  -6   3    7.85    4.10
   4   6   3   12.79    5.56
   4   6   4  140.86    8.71
   4  -6   4  137.49   16.20
   4   6   4  133.97   14.96
   4  -6   5    7.94    3.03
   4   6   5    8.41    2.68
   4  -6   5   14.36    5.46
   4  -6   6  495.76   19.15
   4   6   6  498.77   17.76
   4   6   7    1.92    2.06
   4  -6   7    3.52    2.25
   4   6   8  428.51   17.38
   4  -6   8  418.96   17.12
   4  -6   9  714.52   22.55
   4   6   9  746.32   23.54
   4   6  10   89.28    8.10
   4  -6  10   81.66    7.49
   4   6  11    4.64    3.37
   4  -6  11    2.57    2.18
   4  -6  12   25.47    4.00
   4  -6  13   14.15    2.71
   4  -6  14    3.35    1.49
  -4   6 -14    7.30    1.96
   4   8 -13    1.61    1.24
   4   8 -12  107.93    7.01
  -4   8  12   98.36    6.57
  -4   8  11   20.92    3.23
   4   8 -11   20.61    3.74
   4  -8 -10  390.73   21.26
  -4   8  10  373.82   14.32
   4   8 -10  390.38   15.02
  -4   8   9   59.56    6.11
   4  -8  -9   78.55   10.52
   4   8  -9   63.40    6.51
   4  -8  -8   28.42    8.06
  -4   8   8   33.08    4.97
   4   8  -8   31.80    5.11
   4  -8  -7  226.41   20.57
   4   8  -7  199.70   11.71
  -4   8   7  199.34   10.88
  -4   8   6   67.44    6.58
   4   8  -6   65.94    6.90
   4   8  -5   41.97    5.27
  -4   8   5   41.20    5.12
  -4   8   4   77.23    7.02
   4  -8  -4   81.56   13.76
   4   8  -4   73.09    6.99
  -4   8   3   20.09    3.72
   4   8  -3   18.30    3.39
   4  -8  -3   28.63    8.34
   4  -8  -2  351.31   25.51
   4   8  -2  357.50   15.32
  -4   8   2  381.31   14.99
   4   8  -2  351.79   14.71
  -4   8   1  210.88   11.28
   4  -8  -1  211.49   18.49
   4   8  -1  209.78   11.81
  -4   8   0  594.52   19.12
   4  -8   0  602.45   30.07
   4   8   0  563.51   18.99
   4  -8   1  196.81   17.16
   4   8   1  201.10   11.41
   4   8   2  309.08   14.08
   4  -8   2  294.63   19.63
   4  -8   3    6.02    4.10
   4   8   3    9.19    2.56
   4  -8   4   16.02    5.51
   4   8   4    9.44    3.13
   4  -8   5   42.27    7.34
   4   8   5   33.42    5.08
   4   8   6   82.75    7.41
   4  -8   6   69.09    8.19
   4   8   7   50.79    5.77
   4  -8   7   45.01    6.52
  -4   8  -7   39.53    4.92
   4   8   8    6.15    2.77
  -4   8  -8    2.36    1.86
   4   8   9    5.21    2.26
  -4   8  -9    5.98    2.08
   4   8  10   13.15    3.16
  -4   8 -10    5.39    2.11
   4   8  11   71.22    5.41
  -4   8 -11   60.64    4.61
   4  10  -8   18.23    2.45
  -4  10   7   35.08    3.50
   4  10  -7   33.01    3.57
  -4  10   6    3.09    1.60
   4  10  -6   -2.75    1.75
  -4  10   5   17.69    2.95
   4  10  -5   16.22    2.90
  -4  10   4   14.11    2.65
   4  10  -4   14.99    2.84
  -4  10   3   15.79    2.89
   4  10  -3   11.02    2.59
  -4  10   2   -0.53    1.48
   4  10  -2   -1.23    1.80
   4  10  -1    2.00    1.95
  -4  10   1    4.80    2.20
  -4  10   0    6.47    2.60
   4  10   0    3.76    2.21
  -4  10  -1   76.19    5.42
   4  10   1   83.53    6.27
   4  10   2    5.66    1.88
  -4  10  -2   10.38    2.44
   4  10   3   51.28    4.99
  -4  10  -3   41.99    3.83
  -4  10  -4  130.01    6.18
   4  10   4  145.88    7.87
   4  10   5   10.31    2.37
  -4  10  -5    6.62    1.49
   4  10   6    4.44    1.69
   4  10   7   15.71    2.42
  -5   1  19   44.42    3.75
  -5  -1  18   -0.06    1.32
  -5   1  18   -0.36    1.48
  -5  -1  17  524.54   15.10
  -5   1  17  557.01   16.75
  -5  -1  16   34.26    4.22
  -5   1  16   33.65    4.72
  -5  -1  15  191.36   10.78
  -5   1  15  233.78   12.63
  -5   1  14  692.80   21.21
  -5  -1  14  637.87   19.16
  -5  -1  13    4.42    2.42
  -5   1  13    7.45    2.90
  -5  -1  12   -0.68    2.77
  -5   1  12    3.28    2.06
  -5  -1  11   37.05    8.86
   5   1 -10    7.32    3.74
  -5  -1  10   10.82    4.87
  -5  -1   9  241.66   18.18
   5   1  -8  395.39   20.29
  -5  -1   8  436.78   22.65
   5   1  -7   58.24    8.00
  -5  -1   7   61.35    9.43
  -5  -1   6   27.87    5.25
   5   1  -6   32.23    8.25
   5   1  -5 1148.50   30.88
  -5  -1   5 1057.14   27.12
   5   1  -4   35.97    5.34
  -5  -1   4   28.05    3.94
  -5  -1   3  131.23    7.09
   5   1  -3  154.30   10.71
   5  -1  -2   52.09    5.62
   5  -1  -2   46.34    4.07
  -5   1   2   45.60    5.13
  -5  -1   2   53.13    4.03
   5   1  -1  301.22   15.25
  -5   1   1  300.59   12.62
  -5  -1   1  292.89    7.50
   5  -1  -1  282.94   10.83
   5   1   0  257.16   13.70
   5  -1   0  249.37   11.78
  -5   1   0  224.83   11.32
   5   1   1  597.54   22.27
  -5  -1  -1  563.96   13.01
   5  -1   1  586.88   12.20
  -5   1  -1  575.01   17.82
   5  -1   2    4.10    1.68
  -5   1  -2    6.74    2.54
  -5  -1  -2   10.07    2.20
   5   1   2    5.91    2.33
   5   1   3  597.12   26.45
  -5   1  -3  554.74   19.57
   5  -1   3  560.20   16.29
   5  -1   4  215.87   11.10
   5   1   4  228.87   16.51
  -5   1  -4  182.01   11.56
   5  -1   5  805.36   24.58
   5   1   5  839.72   34.58
   5   1   6    1.88    2.93
   5  -1   6    0.61    1.57
   5   1   7   11.99    5.84
   5  -1   7   10.42    3.64
   5   1   8    2.60    3.09
   5   1   9  637.29   38.91
   5  -1  10   71.79    6.23
   5   1  10   79.08    6.74
   5  -1  11  101.00    7.77
   5   1  11  110.83    8.16
   5  -1  12   87.96    7.52
   5   1  12   94.48    7.45
   5  -1  13   43.77    5.27
   5   1  13   36.40    4.63
   5  -1  14    0.56    1.67
   5   1  14   -1.30    2.22
   5  -1  15   50.41    5.35
   5   1  15   57.77    5.27
   5   1  16   67.51    5.10
   5  -1  16   58.41    4.90
   5   1  17   50.51    3.94
   5  -1  17   45.04    3.50
  -5   3  19   30.21    2.74
  -5   3  18    0.95    1.34
  -5   3  17   21.46    4.36
  -5   3  16    0.53    1.70
  -5   3  15  173.13   10.70
  -5   3  14  103.81    8.12
  -5   3  13   16.03    4.37
   5  -3 -12   64.05   10.44
  -5   3  12   46.02    5.52
  -5  -3  11  274.27   23.66
   5  -3 -11  353.61   22.69
  -5  -3  10   74.74   12.23
  -5  -3   9    9.88    5.37
  -5   3   8   53.35    7.34
  -5  -3   8   59.99    9.14
  -5   3   7  204.82   14.70
  -5  -3   7  191.70   17.21
  -5   3   6   46.23    6.29
  -5  -3   6   45.95    7.30
  -5   3   5  201.98   12.86
  -5  -3   5  197.44   14.10
  -5  -3   4  120.44   10.60
  -5   3   4  121.13    9.91
  -5   3   3 1046.66   30.23
  -5   3   2  329.22   15.94
  -5   3   1  388.51   18.05
  -5   3   0   98.65    9.29
   5  -3   0   86.52    6.92
   5   3   1 1679.36   45.69
  -5   3  -1 1695.09   40.01
   5   3   2  397.65   22.03
  -5   3  -2  426.73   20.20
   5   3   3  490.67   25.29
   5  -3   3  464.87   19.91
  -5   3  -3  477.81   23.06
   5  -3   4  168.25   12.38
   5   3   4  179.29   15.96
  -5   3  -4  161.13   14.06
   5   3   5  147.50   15.05
   5  -3   5  130.85   11.66
   5  -3   6   -1.74    2.32
   5   3   6   -0.35    2.94
   5   3   7   12.46    6.28
   5   3   8   97.69   14.37
   5   3   9  261.00   13.50
   5   3   9  282.46   11.60
   5   3   9  262.99   24.77
   5   3  10  408.84   17.55
   5  -3  10  406.22   14.16
   5   3  10  455.17   15.22
   5  -3  11   31.56    4.61
   5   3  11   38.60    4.77
   5  -3  12  312.30   12.57
   5   3  12  325.75   12.95
   5  -3  13    8.63    2.40
   5   3  13    9.47    2.32
   5   3  14   26.30    3.44
   5   3  15    4.89    1.62
   5   3  16   12.58    1.94
   5  -3  16   19.96    2.95
  -5   5  17   43.49    3.58
  -5   5  16    6.43    1.84
   5   5 -15  163.30    9.01
  -5   5  15  171.74    8.42
  -5   5  14   50.29    4.96
   5   5 -14   48.06    5.50
  -5   5  13  242.96   11.36
   5   5 -13  238.46   12.76
  -5   5  12   29.78    5.09
  -5   5  12   21.33    3.45
   5   5 -12   20.52    4.15
  -5   5  11   90.99    8.11
   5   5 -11   80.25    7.76
  -5   5  11   91.74    7.64
  -5   5  10  156.49    9.01
   5   5 -10  154.17   10.59
   5   5  -9  242.05   13.11
  -5  -5   9  234.98   22.04
   5  -5  -8   85.65   13.05
  -5  -5   8   59.17   11.46
  -5  -5   7   48.22    9.31
  -5  -5   6   19.84    5.75
  -5   5   5   73.69    9.66
  -5  -5   5   57.67   10.15
  -5  -5   4   12.99    4.70
  -5   5   4   14.74    4.37
  -5   5   3    5.06    3.85
  -5   5   2   62.73    8.97
  -5   5   1  788.24   32.12
  -5   5   0  237.96   18.11
   5   5   1  270.52   19.94
  -5   5  -1  237.19   18.80
  -5   5  -2   51.10    9.03
   5   5   2   62.96    9.67
  -5   5  -3  212.55   19.95
   5  -5   3  213.76   18.48
   5   5   3  224.48   18.54
   5  -5   4    0.12    2.65
   5   5   4   -1.21    2.36
   5  -5   5    1.03    2.65
   5  -5   6  464.43   17.08
   5   5   6  450.08   16.14
   5   5   7  941.99   25.06
   5  -5   7  942.99   25.34
   5  -5   8    1.70    2.30
   5   5   8    4.19    3.42
   5   5   9   45.66    5.92
   5  -5   9   47.35    6.01
   5  -5  10  210.74   11.81
   5   5  10  213.16   12.88
   5  -5  11    9.08    3.17
   5   5  11   -0.18    2.48
   5  -5  12  134.72    8.98
   5  -5  13   74.85    6.32
   5  -5  14   19.60    3.07
   5  -5  15   -1.30    1.50
   5   7 -15   17.99    3.00
   5   7 -14    4.18    1.78
   5   7 -13  146.23    8.49
  -5   7  12    7.42    2.60
   5   7 -12   10.41    2.89
   5  -7 -11   16.39    6.26
  -5   7  11   18.46    3.82
   5   7 -11   18.32    4.04
  -5   7  10   93.83    7.47
   5   7 -10   94.69    8.03
   5  -7 -10  104.86   13.38
  -5   7   9   84.81    7.37
   5   7  -9   82.69    7.80
  -5   7   8   44.28    5.63
   5  -7  -8   51.64   11.37
   5   7  -8   40.61    5.62
   5  -7  -7   46.16   11.14
   5   7  -7   45.68    5.95
   5  -7  -6   31.44    9.31
   5   7  -6   23.11    4.31
   5  -7  -5  215.51   21.50
   5   7  -5  178.51   11.00
   5  -7  -4   -1.18    4.58
   5   7  -4    1.68    1.59
   5  -7  -3  243.85   21.09
   5   7  -3  252.32   12.54
   5  -7  -2   20.39    7.02
   5   7  -2    8.51    2.42
   5   7  -1   39.06    5.14
   5   7  -1   25.25    4.18
   5  -7  -1   34.54    8.27
   5  -7   0  274.44   18.88
   5   7   0  278.50   12.89
   5   7   1   40.54    5.34
   5  -7   1   53.16    9.20
   5  -7   2  172.05   13.76
   5   7   2  175.68   10.20
   5  -7   3  197.33   15.33
   5   7   3  181.22   10.61
   5  -7   4   29.88    6.10
   5   7   4   22.05    4.05
   5  -7   5  265.87   16.16
   5   7   5  254.48   12.68
   5   7   6  182.42   10.82
   5  -7   6  191.06   13.15
   5  -7   7    7.19    3.70
   5   7   7    1.56    2.76
   5  -7   8   81.88    8.02
   5   7   8   86.48    7.57
   5   7   9  319.57   14.09
   5  -7   9  288.07   14.53
   5  -7  10   13.51    3.50
   5   7  10   13.63    3.80
   5  -7  11   29.86    4.45
   5   7  11   21.68    3.60
   5  -7  12  131.03    7.68
  -5   7 -12  117.54    6.97
  -5   7 -13   54.90    3.98
   5   9 -11  100.17    5.41
   5   9 -10   13.11    2.48
   5  -9  -9   10.36    3.70
   5   9  -9    4.42    1.83
   5   9  -8    0.63    1.64
   5  -9  -8    3.53    3.18
   5  -9  -7   19.53    5.68
   5   9  -7   15.44    3.11
   5  -9  -6   48.93    9.53
   5   9  -6   38.92    4.52
   5  -9  -5    8.67    5.68
  -5   9   5    6.67    2.43
   5   9  -5    0.77    1.72
   5   9  -5    1.17    1.84
   5  -9  -4   15.00    5.95
  -5   9   4   13.98    2.85
   5   9  -4   11.92    2.91
   5  -9  -3    8.09    5.75
  -5   9   3   21.10    3.88
   5   9  -3   13.22    3.47
   5  -9  -2    8.36    4.94
  -5   9   2    8.64    2.79
   5   9  -2    0.97    2.32
   5  -9  -1   42.42    9.19
  -5   9   1   41.96    4.74
   5   9  -1   40.33    5.12
   5  -9   0   -1.57    6.48
   5   9   0   10.72    2.84
  -5   9   0    2.47    1.84
  -5   9  -1  250.81   11.24
   5  -9   1  270.30   19.79
   5   9   1  251.68   11.93
   5  -9   2   -2.76    4.65
   5   9   2   -0.55    1.92
  -5   9  -2   -2.68    1.92
   5  -9   3   12.22    5.53
   5   9   3   10.13    3.05
  -5   9  -3    7.04    2.19
   5   9   4    8.67    2.41
  -5   9  -4   12.03    2.38
   5   9   5  113.09    7.49
   5   9   6    0.57    1.90
   5   9   7   93.61    6.61
   5   9   8   12.19    2.43
   5   9   9   71.47    4.74
  -6   0  19    0.60    1.03
  -6   0  18   20.08    2.91
  -6   0  17    1.56    1.64
  -6   0  16  213.46   10.86
  -6   0  15    4.22    2.26
  -6   0  14  388.49   15.80
  -6   0  13    3.27    2.15
  -6   0  12  889.52   22.97
  -6   0  12  930.31   44.49
   6   0 -12  871.06   30.03
  -6   0  11    3.25    3.33
  -6   0  10  135.13   14.72
  -6   0   9   -0.96    2.63
  -6   0   8  161.82   13.44
  -6   0   7   -0.16    2.03
  -6   0   6 2714.41   48.81
   6   0  -5    2.05    2.33
  -6   0   5   -0.71    1.72
  -6   0   4 2337.33   36.03
   6   0  -4 2428.09   47.04
   6   0  -3    1.83    2.63
   6   0  -2  539.93   18.71
   6   0  -2  595.22   21.27
  -6   0   1    0.86    1.93
   6   0  -1    1.40    2.18
   6   0   0 3798.24   58.76
  -6   0   0 3837.51   51.30
   6   0   1    2.70    2.95
  -6   0  -1    0.11    1.56
   6   0   2  151.51   12.83
  -6   0  -2  145.70    8.56
  -6   0  -3    0.27    1.40
   6   0   3   -0.46    2.62
   6   0   4  192.83   17.50
   6   0   5   -0.56    2.60
   6   0   6 2432.10   67.30
   6   0   7    1.96    3.77
   6   0   8   -0.23    2.85
   6   0   9    0.39    3.10
   6   0   9    3.43    1.61
   6   0  10  202.41   10.81
   6   0  11   -1.38    2.25
   6   0  12 1392.00   29.82
   6   0  13   -1.11    2.22
   6   0  14  131.30    8.61
   6   0  15   -0.18    1.51
   6   0  16  212.82    8.52
  -6   2  19   14.86    2.18
  -6   2  18   44.66    4.38
  -6   2  17    9.04    2.65
  -6   2  16   91.37    7.18
  -6   2  15   96.08    7.82
  -6   2  14    9.31    3.34
  -6   2  13  132.94    9.20
  -6  -2  12  132.97   17.53
   6  -2 -12  145.42   12.20
  -6  -2  11   38.02    8.83
  -6  -2  10   10.35    5.79
  -6   2  10   10.75    4.51
  -6  -2   9  266.12   19.58
  -6   2   9  250.01   17.30
  -6   2   8  523.78   23.67
  -6  -2   8  532.41   26.58
   6   2  -8  471.92   23.78
  -6   2   7  136.60   11.43
  -6  -2   7  140.89   12.39
   6   2  -7  133.02   12.06
  -6   2   6  203.51   13.64
  -6  -2   6  204.22   14.68
  -6   2   5  111.15    9.49
  -6  -2   5   98.09    8.78
  -6   2   4  156.01   11.60
  -6  -2   4  118.73    9.39
  -6   2   3    2.87    2.14
  -6  -2   3    2.95    1.78
   6  -2  -2  424.36   17.73
  -6   2   2  454.99   19.02
  -6  -2   2  425.29   14.69
  -6   2   1   -1.49    3.00
   6  -2  -1    3.11    1.56
   6  -2  -1    0.99    1.67
   6   2   0 1887.47   46.69
  -6   2   0 2001.50   40.85
   6  -2   0 1864.58   37.10
   6   2   1   26.25    5.23
   6  -2   1   23.52    3.16
  -6   2  -1   24.34    4.85
   6   2   2  565.12   25.62
   6  -2   2  519.33   16.43
  -6   2  -2  522.71   21.12
   6   2   3   82.71   10.05
  -6   2  -3   86.94    9.03
   6   2   4 1197.88   41.83
  -6   2  -4 1096.88   34.07
   6   2   5  603.94   31.23
   6   2   6  204.22   19.20
   6   2   7    5.38    5.23
   6   2   8    7.42    5.79
   6  -2   9   94.42    7.17
   6   2   9   96.08    7.01
   6  -2  10    9.90    3.28
   6   2  10   11.74    3.29
   6  -2  11  293.26   12.60
   6   2  11  278.86   12.38
   6  -2  12   96.94    7.29
   6   2  12   93.43    7.32
   6  -2  13    6.93    2.67
   6   2  13    6.42    2.49
   6  -2  14   15.64    3.21
   6   2  14   10.93    2.71
   6  -2  15   26.94    3.34
   6   2  15   29.79    3.56
   6  -2  16    7.75    2.20
   6   2  16    7.25    1.64
  -6   4  18   60.75    4.02
  -6   4  17    2.83    1.63
  -6   4  16   14.38    2.99
  -6   4  15   11.60    2.58
  -6   4  14  201.30   10.95
  -6   4  13  125.77    8.93
   6   4 -13  129.21    9.29
  -6   4  12   14.54    3.92
   6   4 -12   11.66    3.27
   6  -4 -11   15.88    6.58
   6   4 -11   13.53    3.14
   6  -4 -10   40.96   10.51
  -6  -4  10   24.80    8.06
   6   4 -10   29.27    4.82
  -6  -4   9    2.51    3.60
  -6  -4   8  193.96   18.01
  -6   4   7   24.31    5.64
  -6  -4   7   18.36    6.08
  -6   4   6   15.84    4.75
  -6  -4   6   28.10    6.75
  -6  -4   5  173.14   15.10
  -6   4   5  175.21   13.98
  -6   4   4    9.48    4.57
  -6  -4   4    8.51    4.69
  -6  -4   3  194.65   14.80
  -6   4   3  209.80   15.27
  -6   4   2   73.51    9.38
  -6   4   1   50.18    8.21
  -6   4   0  303.17   19.87
  -6   4  -1  122.72   12.48
  -6   4  -2    3.31    3.79
   6  -4   2    4.97    2.94
   6   4   3  163.79   16.74
   6  -4   3  154.85   12.77
  -6   4  -3  153.69   15.35
  -6   4  -4  167.59   16.46
   6   4   4  196.29   18.86
   6   4   5   21.72    7.39
   6   4   6  601.24   35.78
   6   4   7   38.76    5.27
   6   4   7   40.05    9.82
   6   4   8  274.84   13.76
   6   4   9    1.13    2.29
   6   4  10  751.07   24.22
   6  -4  12  240.67   12.30
   6   4  12  210.95    9.53
   6  -4  13   58.43    5.87
   6   4  13   43.79    4.09
   6  -4  14   76.44    6.15
   6   4  14   61.75    4.33
   6  -4  15   -0.43    1.48
   6   6 -15  124.82    6.56
   6   6 -14    2.57    1.92
   6   6 -13   48.97    5.45
   6  -6 -12    5.78    5.55
   6   6 -12    4.90    2.88
   6  -6 -11   21.91    8.24
   6   6 -11   12.99    3.50
   6  -6 -10    7.56    7.22
   6   6 -10    1.97    2.68
   6  -6  -9   36.03   10.66
   6   6  -9   28.19    4.57
   6  -6  -8  112.33   17.54
   6   6  -8  110.14    8.85
   6  -6  -7  370.80   28.11
   6   6  -7  297.55   14.21
   6  -6  -6   14.02    9.11
   6   6  -6   24.81    5.71
  -6  -6   6   23.20    9.54
   6  -6  -5   26.29    8.47
  -6  -6   5   23.27    6.77
   6   6  -5   25.01    3.94
   6  -6  -4   10.85    7.10
  -6  -6   4   12.36    5.62
  -6   6   4   12.86    4.79
   6   6  -4    8.49    2.70
  -6   6   3    0.85    3.16
  -6  -6   3    4.41    3.91
  -6   6   2  164.32   17.11
  -6   6   1  123.41   15.06
  -6   6   0   56.07   10.86
  -6   6  -1  215.29   20.33
  -6   6  -2  216.30   21.27
   6  -6   2  246.71   15.39
   6  -6   3   -2.15    2.91
   6   6   3    4.70    2.35
   6   6   4  127.04    8.96
   6  -6   4  103.70   10.09
   6  -6   5  229.73   13.72
   6   6   5  234.48   11.64
   6  -6   6  656.88   23.75
   6   6   6  680.94   20.80
   6  -6   7  163.73   11.26
   6   6   7  155.12   10.11
   6  -6   8    0.27    2.27
   6   6   8    8.99    3.16
   6  -6   9   80.38    7.73
   6   6   9   91.32    7.95
   6  -6  10    1.71    2.24
   6   6  10    2.76    2.48
   6  -6  11   63.03    6.29
   6  -6  12   11.10    2.58
   6  -6  13   14.60    2.68
   6   8 -13    4.01    1.49
   6   8 -12   23.95    3.04
   6  -8 -11   43.09    6.94
   6   8 -11   34.50    4.15
   6  -8 -10   51.17    8.78
   6   8 -10   39.31    4.65
   6  -8  -9   13.45    5.87
   6   8  -9    0.23    2.13
   6  -8  -8   58.45   11.36
   6   8  -8   40.29    5.24
   6  -8  -7  121.76   16.62
   6   8  -7   97.29    7.65
   6  -8  -6  255.97   24.14
   6   8  -6  219.47   11.77
   6  -8  -5   85.11   15.08
   6   8  -5   63.83    6.53
   6  -8  -4   68.57   12.52
   6   8  -4   64.73    6.53
   6  -8  -3    2.74    5.03
   6   8  -3    1.43    1.76
   6   8  -3    6.54    2.68
   6  -8  -2   12.24    6.74
   6   8  -2   23.23    4.23
   6  -8  -1   -3.07    5.63
   6   8  -1   -1.47    1.97
   6   8   0   79.55    7.11
   6  -8   0   84.57   11.80
   6  -8   1   16.60    5.92
   6   8   1   19.14    3.64
   6   8   2    4.33    2.74
   6  -8   2    0.02    4.12
   6  -8   3   13.56    4.85
   6   8   3   11.88    2.95
   6  -8   4   12.65    4.66
   6   8   4   22.36    4.02
   6   8   5   16.46    3.57
   6  -8   5   10.47    4.38
   6  -8   6    6.58    4.67
   6   8   6    3.55    2.20
   6   8   7   17.71    3.42
   6  -8   7   14.25    3.93
   6  -8   8    7.82    2.74
   6   8   8   12.15    3.00
  -6   8  -8    6.19    1.87
   6  -8   9   37.66    5.09
   6   8   9   43.54    4.44
  -6   8  -9   38.06    3.79
   6  -8  10  139.00    8.04
  -6   8 -10  136.68    6.25
   6  10  -7    3.57    1.16
   6  10  -6   13.60    2.27
   6  10  -5   23.60    3.01
   6  10  -4  123.03    6.57
   6  10  -3   48.18    4.25
   6  10  -2    4.48    1.90
   6  10  -1  142.04    7.28
   6  10   0  453.42   13.30
   6  10   1   47.98    4.31
   6  10   2   66.49    4.90
   6  10   3   29.04    3.34
   6  10   4    2.43    1.27
   6  10   5   16.75    2.30
  -7   1  19    5.64    1.74
  -7   1  18   56.32    4.72
  -7  -1  17    1.41    1.68
  -7   1  17    6.08    2.53
  -7  -1  16  252.05   10.89
  -7   1  16  296.39   12.88
  -7  -1  15  108.85    7.50
  -7   1  15  122.38    8.76
  -7   1  14  396.51   16.08
  -7  -1  14  385.05   14.61
   7  -1 -13   43.08    7.39
  -7  -1  13   38.85    4.92
  -7   1  13   39.21    5.48
  -7  -1  12  202.45   21.04
   7   1 -12  179.25   13.69
   7  -1 -12  187.17   13.62
  -7  -1  11  191.48   19.21
   7   1 -10   -0.42    1.91
  -7  -1  10    0.56    2.46
   7   1  -9   34.13    7.11
  -7  -1   9   41.15    7.69
   7   1  -8  581.79   27.58
  -7  -1   8  598.75   26.62
   7   1  -7  493.27   24.68
  -7  -1   7  477.46   21.76
  -7  -1   6  165.91   11.65
   7   1  -6  181.40   14.52
  -7  -1   5  977.02   25.44
   7  -1  -5 1076.69   33.10
   7   1  -5 1077.01   34.53
  -7  -1   4  201.02    9.60
   7  -1  -4  229.35   14.86
  -7   1   4  219.22   13.30
  -7   1   3  568.46   23.00
   7  -1  -3  528.02   23.30
  -7   1   2   20.73    4.17
   7  -1  -2   23.04    3.73
   7  -1  -2   24.91    4.68
   7  -1  -1  109.96    8.72
   7   1  -1  110.09   10.82
  -7   1   1  128.26    9.74
  -7   1   0   17.51    3.81
   7   1   0   13.05    4.96
   7  -1   0   15.47    3.38
  -7  -1   0   13.62    2.42
   7  -1   1  723.74   27.19
  -7  -1  -1  712.56   18.27
   7   1   1  746.74   28.55
  -7   1  -1  723.14   23.97
   7  -1   2  100.31   10.74
   7   1   2  106.77   11.20
  -7   1  -2   94.05    8.28
   7   1   3  937.02   35.92
   7  -1   3  948.27   36.16
  -7   1  -3  918.72   27.04
   7   1   4  283.21   20.77
   7  -1   4  285.38   21.14
  -7   1  -4  253.66   14.35
   7   1   5  228.97   19.97
   7  -1   5  217.35   20.17
   7   1   6    1.42    3.29
   7  -1   6    0.85    2.89
   7   1   7   13.69    7.53
   7  -1   7    6.30    5.55
   7   1   8   78.66   13.71
   7  -1   8   57.33   12.35
   7  -1   9  586.76   18.34
   7   1   9  587.99   18.17
   7  -1  10  764.88   21.50
   7   1  10  739.87   21.03
   7  -1  11  377.31   15.27
   7   1  11  376.76   14.95
   7  -1  12    4.29    2.14
   7   1  12    4.55    2.16
   7  -1  13   16.84    3.88
   7   1  13   16.16    3.52
   7  -1  14    0.96    1.59
   7   1  14   -1.15    1.74
   7  -1  15    4.28    1.80
   7   1  15    5.84    1.80
   7   1  16   27.76    2.91
   7  -1  16   40.90    3.52
  -7   3  18    3.58    1.35
  -7   3  17    6.84    2.77
  -7   3  16   38.81    4.59
  -7   3  15   66.17    6.26
  -7   3  14   37.95    4.94
  -7   3  13  712.18   21.83
   7  -3 -12    8.83    3.88
   7  -3 -12   12.23    5.36
  -7  -3  11    8.08    5.58
   7  -3 -11   24.95    8.09
   7  -3 -11   23.88    5.21
  -7  -3  10   15.74    6.31
  -7   3   9  238.64   17.82
  -7  -3   9  249.38   21.39
  -7   3   8   38.65    7.12
  -7  -3   8   37.43    7.47
  -7   3   7  497.00   24.90
  -7  -3   7  516.39   26.07
  -7   3   6  268.97   17.63
  -7  -3   6  290.54   18.12
  -7   3   5   54.66    8.33
  -7  -3   5   54.03    7.66
  -7   3   4   38.44    6.45
  -7  -3   4   30.01    5.42
   7  -3  -3  494.40   22.17
  -7  -3   3  483.42   20.17
  -7   3   3  496.97   23.11
   7  -3  -2  285.26   16.08
  -7   3   2  290.32   17.39
  -7   3   1 1739.90   45.21
   7  -3  -1 1669.47   39.44
  -7   3   0  195.35   15.11
   7   3   1  935.30   38.07
  -7   3  -1  875.25   32.43
   7   3   2   59.42    9.82
  -7   3  -2   52.60    8.35
   7   3   3  618.67   32.60
  -7   3  -3  638.38   29.82
   7   3   4   28.70    7.15
  -7   3  -4   20.43    5.68
   7   3   5  177.68   18.31
   7   3   6    5.71    3.34
   7   3   7   20.09    6.87
   7  -3   8   69.34    6.35
   7   3   8   90.30    6.62
   7   3   9  151.24    9.99
   7   3   9  159.95    9.02
   7  -3   9  141.24    8.83
   7   3  10    1.15    1.41
   7  -3  10    4.75    1.92
   7  -3  11   -0.19    1.74
   7   3  11    4.73    2.23
   7  -3  12   12.76    2.91
   7   3  12   14.20    3.09
   7   3  13   19.91    3.13
   7   3  14    1.98    1.31
   7  -3  14    6.62    2.42
   7   3  15    8.53    1.76
   7  -3  15    8.20    2.40
  -7   5  17    9.35    2.07
  -7   5  16  164.52    7.50
  -7   5  15    3.56    2.01
  -7   5  14    4.13    2.10
   7   5 -14    2.31    1.74
   7  -5 -13   43.87    9.03
  -7   5  13   39.56    5.27
   7   5 -13   32.13    5.34
   7  -5 -12  171.12   16.75
  -7   5  12  145.69    9.16
   7   5 -12  151.95    9.84
   7   5 -11  181.87   11.58
   7  -5 -11  235.59   20.51
   7   5 -10   14.51    3.67
   7  -5 -10   13.00    7.68
   7  -5  -9  185.77   19.93
   7   5  -9  161.21   10.48
  -7  -5   8   -1.88    3.70
   7  -5  -8    0.81    5.90
   7   5  -8    1.61    2.30
   7  -5  -7   49.61   10.68
  -7  -5   7   35.70    8.62
  -7  -5   6   19.17    6.13
  -7   5   6   13.34    5.03
  -7   5   5    3.10    3.85
  -7  -5   5    4.45    4.09
  -7   5   4   28.28    6.73
  -7   5   3  274.04   20.58
  -7   5   2   62.16   10.00
  -7   5   1   12.48    5.18
  -7   5   0   24.07    6.33
  -7   5  -1    5.91    4.59
  -7   5  -2   45.58    9.75
  -7   5  -3   25.76    8.77
   7  -5   4  425.77   17.96
   7  -5   5  145.60   10.35
   7   5   5  145.46    8.77
   7  -5   6  427.55   17.79
   7   5   6  430.23   16.17
   7  -5   7  155.41   10.79
   7   5   7  166.53   10.39
   7   5   8  121.54    8.97
   7  -5   8  118.49    9.01
   7   5   9  129.15    9.33
   7  -5   9  137.34    9.98
   7  -5  10   18.03    3.87
   7   5  10   15.37    3.60
   7  -5  11   93.92    7.68
   7  -5  12   13.64    3.25
   7  -5  13   39.56    4.40
   7   5  13   30.25    2.93
   7  -5  14   62.77    4.85
   7   7 -14    7.07    1.82
   7   7 -13    3.41    1.58
   7  -7 -12    4.18    4.33
   7   7 -12    3.24    1.53
   7   7 -11   16.57    3.43
   7  -7 -11   26.21    7.47
   7  -7 -10   71.33   11.69
   7   7 -10   61.11    6.40
   7  -7  -9   43.43   10.21
   7   7  -9   27.60    4.83
   7  -7  -8  324.27   26.57
   7   7  -8  243.63   12.70
   7  -7  -7    0.89    7.02
   7   7  -7   -0.27    1.92
   7  -7  -6    5.68    6.13
   7   7  -6    7.02    2.71
   7  -7  -5  526.12   32.60
   7   7  -5  518.32   18.34
   7  -7  -4   22.27    7.75
   7   7  -4   22.87    3.94
   7  -7  -3   95.31   15.07
   7   7  -3   89.95    8.27
   7  -7  -2  307.81   22.17
   7   7  -2  302.64   12.71
   7  -7  -1  528.32   27.96
   7   7  -1  501.13   16.62
   7  -7   0   34.14    7.10
   7   7   0   30.95    4.27
   7  -7   1  855.78   32.19
   7   7   1  840.62   21.84
   7   7   2   38.61    4.58
   7  -7   2   49.52    8.39
   7   7   3    2.27    2.48
   7  -7   3   14.69    5.87
   7  -7   4   63.59    8.12
   7   7   4   62.28    6.16
   7  -7   5   22.67    5.56
   7   7   5   18.04    3.95
   7  -7   6   69.91    8.68
   7   7   6   63.90    6.14
   7  -7   7   36.54    6.17
   7   7   7   33.54    4.70
   7  -7   8   12.50    4.01
   7   7   8   11.27    3.11
   7  -7   9   38.85    5.54
   7   7   9   40.96    4.79
   7  -7  10   73.42    6.47
   7  -7  11   33.05    4.43
  -7   7 -11   24.41    2.96
   7  -9 -10    7.89    3.14
   7   9 -10    3.98    1.29
   7  -9  -9    4.99    3.48
   7   9  -9    2.04    1.25
   7  -9  -8   10.32    5.05
   7   9  -8    0.97    1.26
   7  -9  -7   78.80   10.59
   7   9  -7   60.47    4.90
   7  -9  -6   18.39    7.39
   7   9  -6   13.41    2.67
   7  -9  -5    5.08    5.84
   7   9  -5    2.93    1.90
   7  -9  -4   -0.87    5.60
   7   9  -4    0.10    1.58
   7  -9  -3  -13.40    7.11
   7   9  -3    0.69    1.69
   7   9  -2   10.97    2.79
   7  -9  -2   12.61    6.21
   7   9  -1  237.72   10.66
   7  -9  -1  247.60   19.36
   7  -9   0   91.58   12.03
   7   9   0   91.28    6.65
   7   9   1  127.75    7.70
   7  -9   1  131.05   13.46
   7  -9   2   11.55    6.00
   7   9   2   -3.20    1.82
   7  -9   3   37.86    6.81
   7   9   3   26.37    3.30
   7  -9   4   24.55    5.80
   7   9   4   29.37    3.59
   7  -9   5   53.97    7.29
   7   9   5   61.18    4.83
   7  -9   6   61.23    6.89
   7   9   6   57.58    4.52
   7   9   7    3.37    1.72
  -8   0  19    1.93    1.06
  -8   0  18    0.95    1.26
  -8   0  17    1.11    1.64
  -8   0  16   38.87    5.00
  -8   0  15   -0.72    2.01
  -8   0  14   20.47    4.26
   8   0 -13   -5.07    4.10
  -8   0  13    6.13    2.41
   8   0 -12  840.67   29.57
   8   0 -11    3.42    3.92
   8   0 -10   29.55    7.14
  -8   0  10   43.67    8.67
   8   0  -9   -1.73    3.69
  -8   0   9   -2.19    2.29
   8   0  -8  785.53   33.34
  -8   0   8  813.26   30.54
   8   0  -7    0.22    2.26
  -8   0   7   -0.87    2.35
   8   0  -6  410.04   22.78
   8   0  -5    2.93    2.71
   8   0  -4  345.69   19.91
  -8   0   3    0.89    2.84
   8   0  -2 1135.45   32.24
  -8   0   2 1155.78   30.89
  -8   0   1   -2.15    2.78
   8   0  -1   -0.22    2.86
  -8   0   0    1.31    2.30
   8   0   0    3.73    3.51
  -8   0  -1    1.80    2.08
   8   0   1   -0.92    2.38
  -8   0  -2  118.65    8.73
   8   0   2  126.82   12.73
   8   0   3    2.83    3.13
   8   0   4 1230.09   45.87
   8   0   5    3.50    3.39
   8   0   6  529.12   33.67
   8   0   7   -1.44    3.60
   8   0   8   21.49    3.77
   8   0   9    2.25    1.90
   8   0  10  219.02   11.45
   8   0  11    2.26    2.27
   8   0  12   91.52    7.66
   8   0  13   -0.86    1.72
   8   0  14    5.82    2.01
   8   0  15    1.52    1.31
  -8   2  19    7.75    1.53
  -8   2  18    9.43    2.26
  -8   2  17  106.77    6.77
  -8   2  16   35.02    4.71
  -8   2  15  127.70    8.81
  -8   2  14  212.86   11.60
   8  -2 -13   54.13    7.90
   8  -2 -12   36.43    6.72
   8  -2 -12   50.49    8.76
  -8   2  11   18.68    5.34
   8  -2 -11   21.68    4.74
   8  -2 -11   30.84    6.85
  -8  -2  11   22.83    7.47
  -8  -2  10 1214.61   46.07
  -8   2  10 1138.16   42.42
  -8   2   9  348.71   22.05
  -8  -2   9  369.65   23.54
  -8  -2   8   55.18    8.66
  -8   2   8   52.68    8.37
  -8   2   7   52.21    8.03
  -8   2   6  244.63   16.81
   8  -2  -5  166.99   14.11
  -8   2   5  170.19   13.54
   8  -2  -4 1189.34   36.75
  -8   2   4 1150.53   35.54
   8  -2  -3  214.45   15.28
  -8   2   3  217.49   15.02
  -8   2   2  977.83   31.84
   8  -2  -2  972.55   32.07
  -8   2   1  540.99   23.48
   8   2   0  660.78   30.91
   8  -2   0  649.52   24.62
   8   2   1  378.46   23.42
   8  -2   1  369.81   20.11
  -8   2  -1  383.24   20.20
  -8   2  -2   19.76    6.21
   8  -2   2   11.47    5.55
   8   2   2   16.33    6.35
   8   2   3  243.84   19.77
   8  -2   3  233.00   19.24
  -8   2  -3  223.31   15.83
   8   2   4   30.74    9.94
  -8   2  -4   22.50    7.59
   8  -2   4   22.72    8.95
   8   2   5    1.24    2.53
   8  -2   5    4.30    3.65
   8   2   6  420.02   30.31
   8  -2   6  363.67   29.53
   8   2   7  175.87   20.35
   8  -2   7  191.76   10.22
   8  -2   7  152.28   19.92
   8  -2   8  105.39    7.61
   8   2   8  109.54    7.71
   8  -2   9   79.88    7.26
   8   2   9  104.02    7.56
   8   2  10   53.42    5.83
   8  -2  10   40.20    5.60
   8  -2  11   24.31    3.87
   8   2  11   25.92    3.97
   8  -2  12    5.29    2.04
   8   2  12    3.82    2.13
   8  -2  13   12.06    2.88
   8   2  13   11.17    2.64
   8  -2  14  218.89    9.95
   8   2  14  204.30    8.35
   8  -2  15  166.24    7.56
   8   2  15  136.36    6.06
  -8   4  18  147.11    5.86
  -8   4  17   49.39    4.30
  -8   4  16   75.99    5.75
  -8   4  15   38.30    4.55
  -8   4  14  214.66   11.02
   8  -4 -13   -2.01    4.07
  -8   4  13    8.50    3.22
   8  -4 -12   10.10    4.12
   8  -4 -12    9.68    6.50
   8   4 -11  676.02   20.93
   8  -4 -11  646.34   23.99
   8  -4 -10   27.80    8.71
   8  -4 -10   32.10    5.97
   8   4 -10   21.28    4.40
   8  -4  -9    3.15    5.97
   8   4  -9    2.85    1.76
  -8   4   8   15.84    6.09
  -8   4   7   33.28    7.97
  -8   4   6   62.33   10.87
  -8   4   5  229.87   17.87
   8  -4  -4  275.88   19.20
  -8   4   4  282.30   20.00
   8  -4  -3  169.64   14.41
  -8   4   3  205.24   17.05
  -8   4   2   47.03    8.47
  -8   4   1   26.93    6.56
  -8   4   0   34.68    8.56
  -8   4  -1   65.86   10.22
  -8   4  -2   17.56    6.70
   8   4   3   62.67   12.14
  -8   4  -3   57.76   10.56
   8   4   4  123.22   16.64
  -8   4  -4  112.16   14.60
   8   4   5  102.75   15.93
   8  -4   5  109.10    8.44
   8  -4   6  199.55   11.80
   8  -4   7  388.36   16.27
   8  -4   8  278.44   13.92
   8  -4   9  371.16   16.16
   8  -4  10    3.63    2.95
   8  -4  11   -1.37    1.99
   8  -4  12    1.26    2.13
   8  -4  13    8.42    2.53
   8  -4  14   43.28    4.14
   8   4  14   31.77    2.88
  -8   6  15   32.71    3.13
  -8   6  14    5.47    1.83
   8   6 -14    1.94    1.43
   8  -6 -13   13.80    5.16
  -8   6  13    8.64    2.23
   8   6 -13    6.67    1.99
   8  -6 -12   27.93    8.03
  -8   6  12   27.76    4.23
   8   6 -12   18.87    3.85
   8  -6 -11  114.59   14.79
   8   6 -11   92.72    7.79
   8  -6 -10    8.79    8.12
   8   6 -10    0.51    1.87
   8  -6  -9  913.95   44.73
   8   6  -9  759.00   22.73
   8  -6  -8  543.34   34.85
   8   6  -8  459.44   17.59
   8  -6  -7   -4.23    5.72
   8   6  -7   -2.67    3.00
   8  -6  -6  634.33   36.35
   8   6  -6  608.69   19.97
   8  -6  -5   75.02   11.67
   8   6  -5   72.77    6.72
   8  -6  -4  187.72   18.32
   8   6  -4  167.28   10.25
  -8   6   4  181.35   19.02
   8  -6  -3   -0.67    3.87
  -8   6   3   -1.17    2.97
   8   6  -3    3.54    2.36
   8  -6  -2  297.74   19.85
  -8   6   2  305.33   24.86
  -8   6   1   51.38   10.53
   8  -6  -1   51.71    8.63
   8  -6   0    7.90    4.88
   8  -6   1  264.21   16.92
   8  -6   2  557.65   24.52
   8  -6   3   34.82    6.54
   8  -6   4   84.77    9.30
   8  -6   5   81.15    8.63
   8  -6   6  121.34   10.19
   8  -6   7  257.97   14.63
   8   6   7  277.33   12.56
   8  -6   8   11.30    2.90
   8   6   8    6.60    2.54
   8  -6   9   30.59    5.17
   8   6   9   35.38    4.27
   8  -6  10  131.37    9.15
   8  -6  11   27.68    4.38
   8  -6  12  119.55    7.42
   8   8 -12   44.83    3.79
   8  -8 -11    1.30    2.92
   8   8 -11    2.11    1.60
   8   8 -10   81.07    6.07
   8  -8 -10   85.85   11.15
   8  -8  -9    8.61    5.16
   8   8  -9    3.29    1.95
   8  -8  -8    5.82    7.36
   8   8  -8    2.44    2.33
   8  -8  -7   30.71    9.36
   8   8  -7   21.56    3.95
   8   8  -6   60.17    5.37
   8  -8  -6   81.84   14.09
   8   8  -6   72.92    6.71
   8  -8  -5    5.29    7.07
   8   8  -5   -2.92    1.48
   8  -8  -4   37.82    9.62
   8   8  -4   23.74    3.70
   8  -8  -3    8.72    6.23
   8   8  -3    1.76    2.04
   8  -8  -2    8.19    7.05
   8   8  -2   -0.06    1.54
   8  -8  -1   15.30    5.79
   8   8  -1   10.14    2.65
   8   8   0   41.62    4.88
   8  -8   0   37.03    8.61
   8  -8   1    6.20    4.48
   8   8   1    9.36    2.56
   8   8   2   39.60    4.49
   8  -8   2   43.92    8.40
   8  -8   3   -2.16    3.92
   8   8   3   -2.28    1.64
   8  -8   4    7.85    4.85
   8   8   4    6.00    2.54
   8  -8   5   57.74    8.04
   8   8   5   50.05    4.82
   8  -8   6   55.34    7.35
   8   8   6   40.83    4.10
   8  -8   7   39.11    5.67
   8   8   7   43.16    4.10
   8  -8   8    5.30    2.80
   8  -8   9   70.98    5.92
   8 -10  -5   12.37    4.02
   8 -10  -4    0.26    3.53
   8 -10  -3   22.13    5.82
   8 -10  -2   89.29    9.97
   8 -10  -1   30.95    7.38
   8 -10   0  403.74   19.85
   8 -10   1   71.76    8.10
  -9   1  19    6.40    1.46
  -9   1  18   73.14    5.05
  -9   1  17   55.50    5.15
  -9   1  16    1.65    1.76
  -9   1  15    9.11    3.60
  -9   1  14   19.51    4.02
   9   1 -13  227.86   16.19
   9  -1 -13  237.89   16.06
   9   1 -12  178.64   13.70
   9  -1 -12  174.50   13.32
   9   1 -11   51.24    4.56
   9   1 -11   38.01    8.78
   9  -1 -11   48.92    6.91
   9  -1 -10   -0.57    3.20
   9   1 -10    1.35    2.39
   9  -1  -9  889.58   39.57
   9   1  -9  902.63   39.68
   9  -1  -8   97.63   12.48
   9   1  -8   97.14   12.65
  -9   1   7   21.12    5.61
   9  -1  -7   21.15    5.81
   9   1  -7   16.97    4.82
  -9   1   6    3.33    3.45
   9  -1  -6    1.38    2.48
  -9   1   5  175.73   14.77
   9  -1  -5  153.58   15.18
  -9   1   4  377.06   20.36
   9  -1  -4  389.80   22.02
  -9   1   3 1701.83   43.26
   9  -1  -3 1736.99   46.72
  -9  -1   2  294.61   15.70
  -9   1   2  291.02   17.09
  -9  -1   1    5.80    3.17
  -9   1   1    5.65    3.05
   9   1  -1    6.51    3.40
   9  -1  -1    3.85    2.77
   9   1   0  127.84   12.99
   9  -1   0  121.52   11.52
  -9   1   0  115.31   10.49
   9   1   1  165.21   15.55
   9  -1   1  149.68   13.84
  -9   1  -1  172.78   13.20
   9  -1   2  462.44   25.83
   9   1   2  459.35   26.99
  -9   1  -2  461.97   21.31
   9  -1   3  728.91   35.06
   9   1   3  716.37   35.29
   9   1   4    0.43    2.50
   9  -1   4   -1.24    3.32
   9   1   5   61.61   11.69
   9  -1   5   59.25   11.51
   9   1   6    7.53    5.14
   9  -1   6    2.31    3.23
   9  -1   7    7.11    3.12
   9   1   7    3.06    2.17
   9  -1   8   77.68    6.74
   9   1   8   77.11    6.65
   9  -1   9  202.56   11.12
   9   1   9  207.20   10.99
   9  -1  10   94.59    7.40
   9   1  10   90.50    7.48
   9  -1  11   34.76    5.13
   9   1  11   35.65    4.62
   9  -1  12    4.71    2.39
   9   1  12    6.85    2.57
   9  -1  13    4.39    1.99
   9   1  13    0.09    1.55
   9  -1  14   10.56    2.19
   9   1  14    8.46    2.19
   9  -1  14    6.44    1.63
   9   1  15   12.50    1.80
  -9   3  18  170.86    7.13
  -9   3  17   13.07    2.65
  -9   3  16    6.26    2.03
  -9   3  15  353.24   14.14
  -9   3  14   78.50    6.93
   9  -3 -13   32.40    6.20
   9  -3 -13   42.16    7.74
   9  -3 -12  570.55   27.78
   9  -3 -12  474.42   21.43
   9  -3 -11 1194.57   42.38
   9  -3 -11 1008.25   30.46
   9  -3 -10   44.90    9.89
  -9   3  10   39.95    8.80
   9  -3 -10   35.81    5.57
   9   3 -10   32.37    3.90
  -9   3   9   64.79    9.87
  -9   3   8    7.42    4.54
   9  -3  -7   88.82   12.96
  -9   3   7   83.45   10.94
  -9   3   6   29.57    6.55
   9  -3  -6   25.02    6.35
  -9   3   5   59.10    8.89
   9  -3  -5   57.76    9.24
   9  -3  -4   56.99    9.02
  -9   3   4   58.72    8.86
  -9   3   3  638.60   30.13
   9  -3  -3  614.08   28.86
  -9   3   2  213.85   16.87
   9  -3  -2  204.52   15.72
  -9   3   1  163.38   15.65
  -9   3   0   79.81   10.83
   9   3   1  449.55   29.02
  -9   3  -1  439.22   25.78
   9   3   2   13.73    4.88
  -9   3  -2   20.17    6.55
   9   3   3  416.68   30.00
  -9   3  -3  408.77   25.81
   9   3   4   25.19    7.72
  -9   3  -4   12.32    5.13
   9  -3   5   23.08    4.17
   9   3   5   16.74    6.76
   9  -3   6    3.51    2.62
   9  -3   7  195.82   11.89
   9  -3   8   17.44    4.17
   9   3   8   19.53    3.48
   9  -3   9  151.09   10.36
   9   3   9  145.81    8.71
   9  -3  10   90.71    7.96
   9   3  10   85.06    6.44
   9  -3  11    3.66    2.53
   9   3  11    1.56    1.54
   9  -3  12   34.91    4.68
   9   3  12   29.10    3.50
   9  -3  13   64.99    5.59
   9   3  13   52.86    4.09
   9  -3  14   12.32    2.44
   9   3  14   12.25    1.87
  -9   5  16    7.93    1.95
  -9   5  15   16.29    2.84
  -9   5  14    2.13    1.56
   9  -5 -13    8.52    5.18
  -9   5  13   15.24    3.80
   9   5 -13   -0.30    1.34
   9   5 -12   87.14    7.13
   9  -5 -12  103.47   13.16
   9  -5 -11   23.72    8.58
   9   5 -11    4.14    2.31
   9  -5 -10  434.89   29.65
   9   5 -10  326.64   14.36
   9  -5  -9  203.52   21.55
   9   5  -9  186.90   11.14
   9  -5  -8    2.03    5.60
   9   5  -8   -1.96    2.01
  -9   5   7  805.33   39.22
   9   5  -7  824.68   22.88
   9  -5  -6  851.42   39.19
  -9   5   6  808.07   39.12
   9   5  -6  891.03   23.49
   9  -5  -5   93.85   12.54
  -9   5   5   96.56   14.03
   9   5  -5   91.20    7.47
   9  -5  -4  303.30   20.16
   9   5  -4  340.55   14.04
  -9   5   4  301.57   23.52
  -9   5   3   49.65   10.53
  -9   5   2  115.30   15.07
  -9   5   1   11.70    4.97
   9  -5   0    4.45    3.55
  -9   5   0    3.18    3.38
   9  -5   1   86.58    9.38
  -9   5  -1   87.55   13.87
   9  -5   2  109.93    9.91
  -9   5  -2  108.48   15.54
   9  -5   3  108.70   10.49
   9  -5   4  112.48    9.74
   9  -5   5  245.16   13.91
   9  -5   6  347.57   16.76
   9  -5   7   30.74    4.94
   9  -5   8   62.38    6.90
   9   5   8   57.15    5.26
   9  -5   9    0.97    2.54
   9   5   9   -0.51    1.12
   9  -5  10  114.91    8.71
   9   5  10  105.69    6.36
   9  -5  11    7.89    2.88
   9   5  11    5.49    1.46
   9  -5  12   -3.78    2.62
   9   5  12    0.48    0.71
   9  -5  13    5.89    2.18
   9   7 -13   56.71    4.46
   9  -7 -12   20.69    6.15
   9   7 -12   17.10    2.91
   9  -7 -11   41.43    8.69
   9   7 -11   25.71    3.74
   9  -7 -10   11.82    7.89
   9   7 -10    6.84    2.16
   9  -7  -9  192.01   20.19
   9   7  -9  148.06    9.31
   9  -7  -8  131.53   18.23
   9   7  -8   90.66    7.49
   9   7  -7    4.54    2.60
   9  -7  -7    5.58    8.51
   9  -7  -6  111.64   16.32
   9   7  -6  100.79    8.11
   9  -7  -5    7.03    6.57
   9   7  -5   16.03    3.56
   9  -7  -4   74.54   13.03
   9  -7  -3    0.56    6.37
   9  -7  -2   22.04    7.03
   9  -7  -1  251.62   20.32
   9  -7   0  142.56   14.22
   9  -7   1  124.66   13.26
   9  -7   2    1.63    3.69
   9  -7   3   49.86    8.98
   9  -7   4   20.75    5.58
   9  -7   5    9.28    4.15
   9  -7   6    1.43    2.97
   9  -7   7   37.41    6.33
   9  -7   8   64.73    6.83
   9  -7   9    1.51    2.07
   9  -7  10   60.83    5.48
   9  -9 -10   17.19    4.18
   9  -9  -9   22.01    5.35
   9  -9  -8   38.34    7.18
   9  -9  -7  137.34   13.72
   9  -9  -6   -1.75    4.46
   9  -9  -5  222.06   19.84
   9  -9  -4    3.43    5.90
   9  -9  -3   61.21   10.08
   9  -9  -2   75.94   11.97
   9  -9  -1   42.98    8.49
   9  -9   0    3.65    4.43
   9  -9   1    3.35    3.99
   9  -9   2   31.36    6.99
   9  -9   3   20.69    5.40
   9  -9   4   10.89    4.03
   9  -9   5   29.26    5.04
 -10   0  18  126.68    5.92
 -10   0  17    0.01    1.56
 -10   0  16   17.85    3.32
 -10   0  15   -1.43    1.73
 -10   0  14   79.24    6.91
  10   0 -13    4.60    2.67
  10   0 -12   54.99    8.04
  10   0 -11    0.95    2.15
  10   0 -10    2.38    3.03
  10   0  -9    0.51    2.37
  10   0  -8   11.18    4.88
  10   0  -7    0.43    3.35
  10   0  -6  915.07   38.75
 -10   0   5   -0.21    2.93
 -10   0   4  993.86   34.43
 -10   0   3   -2.43    2.45
 -10   0   2  244.10   16.13
 -10   0   1    0.70    2.06
  10   0  -1    1.08    2.35
  10   0   0   64.84    9.73
 -10   0   0   70.65    8.38
  10   0   1    0.91    2.18
  10   0   2  418.71   26.02
  10   0   3    0.45    3.02
  10   0   4    2.86    3.55
  10   0   5    2.76    4.22
  10   0   6  267.05   12.12
  10   0   7   -1.84    1.71
  10   0   8   35.55    4.81
  10   0   9   -0.73    2.30
  10   0  10  159.34    9.65
  10   0  11    3.83    2.39
  10   0  12   36.39    4.32
  10   0  13   -0.81    0.94
  10   0  14   89.37    4.59
 -10   2  18   76.62    4.86
 -10   2  17   92.63    6.24
 -10   2  16   54.89    5.29
 -10   2  15   12.78    3.44
  10  -2 -14   15.55    5.42
 -10   2  14   16.86    3.65
  10  -2 -13  261.67   16.77
  10   2 -12  638.64   17.21
  10   2 -12  656.91   25.55
  10  -2 -12  674.46   25.66
  10   2 -11   56.01    7.42
  10   2 -11   48.01    4.74
  10  -2 -11   62.09    7.77
 -10   2  10   27.38    8.46
  10   2 -10   26.79    5.74
  10  -2 -10   27.81    5.65
  10   2 -10   25.73    3.72
  10  -2  -9   39.03    8.98
 -10   2   9   35.59    8.53
  10  -2  -8   46.11    9.38
 -10   2   8   45.90    9.04
  10  -2  -7    1.77    3.51
 -10   2   7   -1.89    2.45
  10  -2  -6   14.05    4.96
 -10   2   6   16.18    4.37
 -10   2   5  384.54   22.91
  10  -2  -5  355.63   23.69
 -10   2   4   89.19   11.56
  10  -2  -4   87.05   11.89
 -10   2   3  105.97   12.03
 -10   2   2  854.59   34.08
 -10   2   1   13.59    5.03
  10   2   0  116.08   15.69
 -10   2   0  148.04   15.48
 -10   2  -1   10.97    4.77
  10   2   1   11.96    5.75
  10   2   2  333.75   25.94
 -10   2  -2  302.09   20.20
  10   2   3   49.72   10.72
 -10   2  -3   33.94    7.44
  10  -2   3   38.36    8.78
  10  -2   4   76.21   13.07
  10   2   4   87.10   14.26
  10  -2   5   19.11    3.93
  10  -2   5   12.97    6.66
  10  -2   6   64.65    6.75
  10  -2   6   65.87    6.29
  10   2   6   69.19    6.14
  10  -2   7  374.03   14.66
  10   2   7  396.79   14.58
  10  -2   8    9.27    2.55
  10   2   8   10.45    2.85
  10  -2   9   16.19    3.72
  10   2   9   16.32    3.21
  10  -2  10  103.57    8.44
  10   2  10  109.88    7.34
  10  -2  11    3.40    2.74
  10   2  11    3.28    2.04
  10  -2  12  211.59   10.18
  10   2  12  206.86    8.99
  10  -2  13   26.90    3.48
  10   2  13   20.02    2.78
  10   2  14   49.02    3.39
 -10   4  17    1.42    1.33
 -10   4  16   55.88    4.74
 -10   4  15    4.99    2.10
 -10   4  14  107.27    7.78
  10  -4 -13   47.21    8.70
  10  -4 -13   33.55    5.79
  10  -4 -12   49.82    9.19
  10  -4 -12   38.11    6.16
  10  -4 -11   10.34    3.38
  10  -4 -11   11.93    7.14
  10  -4 -10  763.61   37.92
  10  -4 -10  573.16   22.23
  10  -4  -9   73.62   12.10
  10   4  -9   63.00    6.03
  10  -4  -9   67.11    7.20
 -10   4   8  396.23   26.85
  10   4  -8  416.85   15.51
  10  -4  -8  400.00   16.62
  10  -4  -7   54.65    6.04
  10  -4  -7   53.64   10.32
  10  -4  -7   75.79   12.80
 -10   4   7   56.45   10.33
  10   4  -7   60.59    6.00
  10  -4  -6  626.81   34.45
 -10   4   6  667.13   34.07
  10  -4  -5  160.06   16.99
 -10   4   5  182.29   17.54
 -10   4   4   45.28    8.98
 -10   4   3   24.93    7.37
 -10   4   2   20.39    7.38
 -10   4   1   73.66   11.42
 -10   4   0  106.27   15.68
 -10   4  -1   80.54   12.83
  10  -4   2  108.72    9.54
 -10   4  -2  119.50   16.06
  10  -4   3   82.74    8.39
  10   4   3   82.23    6.37
 -10   4  -3   73.27   12.64
  10  -4   4  117.12    9.97
  10   4   4  127.82    8.12
  10  -4   5   14.08    3.86
  10   4   5   14.72    2.99
  10  -4   6  455.34   18.92
  10  -4   7  162.34   11.20
  10  -4   8  156.14   11.10
  10  -4   9   -1.41    2.37
  10  -4  10  267.84   13.22
  10   4  10  250.21   10.31
  10  -4  11   30.10    4.23
  10   4  11   29.24    3.33
  10  -4  12  216.97   10.12
  10   4  12  186.90    7.24
  10  -4  13   31.53    3.49
 -10   6  15  304.27    8.64
 -10   6  14    3.05    1.61
 -10   6  13  105.46    6.53
  10   6 -13  100.87    6.25
  10  -6 -13  121.51   11.64
 -10   6  12  139.19    7.97
  10   6 -12  130.93    7.78
  10  -6 -11   10.54    6.25
  10   6 -11    3.46    1.80
  10  -6 -10  111.67   16.31
  10   6 -10   99.29    7.65
  10  -6  -9  211.75   21.96
  10   6  -9  171.37   10.20
  10  -6  -8   27.19    8.77
  10   6  -8   18.08    3.60
  10  -6  -7  148.32   18.88
  10   6  -7  144.30    9.49
  10  -6  -6  832.90   41.81
  10   6  -6  788.69   22.57
  10  -6  -5  301.99   24.25
  10  -6  -4   12.96    8.93
  10  -6  -3   29.08    8.17
  10  -6  -2  198.37   17.09
  10  -6  -1   31.66    7.22
  10  -6   0  155.78   14.23
  10  -6   1   -0.34    3.35
  10  -6   2   17.82    5.56
  10  -6   3  324.96   18.87
  10  -6   4    9.12    5.25
  10  -6   5  108.66   10.38
  10  -6   6  180.26   12.92
  10  -6   7    4.23    4.24
  10  -6   8    2.38    2.74
  10  -6   9  142.09    9.77
  10  -6  10   15.80    3.28
  10  -6  11    4.40    2.18
  10  -8 -11   67.91    8.07
  10  -8 -10   18.30    5.36
  10  -8  -9   58.69    9.99
  10  -8  -8    2.11    5.31
  10  -8  -7   24.60    7.75
  10  -8  -6   22.12   10.27
  10  -8  -5    0.06    6.18
  10  -8  -4   35.28    9.26
  10  -8  -3  -12.77    6.82
  10  -8  -2    7.76    6.79
  10  -8  -1   25.85    7.92
  10  -8   0   70.79   11.69
  10  -8   1   -5.51    5.08
  10  -8   2    0.54    3.80
  10  -8   3   25.46    6.07
  10  -8   4    1.75    3.63
  10  -8   5    5.68    3.68
  10  -8   6    3.98    2.83
  10  -8   7   -0.49    2.43
 -11   1  18    2.64    1.20
 -11   1  17  340.40   11.49
 -11   1  16   15.82    2.86
 -11   1  15  141.62    8.73
  11  -1 -14   10.91    4.67
  11   1 -13  266.69   10.81
  11   1 -13  272.78   16.97
  11  -1 -13  281.00   17.11
  11   1 -12   96.65    6.63
  11   1 -12  101.10   10.07
  11  -1 -12   97.61    9.61
  11   1 -11   54.31    5.28
  11   1 -11   52.63    7.80
  11  -1 -11   54.71    7.15
  11   1 -10   77.53    5.82
 -11   1  10   87.94   13.10
  11   1 -10   83.05    8.38
  11  -1 -10   74.41    7.96
  11  -1  -9    0.38    3.22
 -11   1   9    1.51    3.57
  11  -1  -9    4.86    2.93
 -11   1   8  100.58   12.98
  11  -1  -8   94.50   13.92
  11  -1  -7    4.43    3.00
 -11   1   7    6.79    4.95
 -11   1   6    0.19    2.51
  11  -1  -6   -0.86    3.58
 -11   1   5  763.78   33.64
 -11  -1   4    8.09    3.82
 -11   1   4    4.92    3.17
 -11  -1   3  310.13   19.10
 -11   1   3  316.06   20.77
 -11   1   2  181.76   15.30
 -11   1   1   25.34    6.71
  11   1   0  392.32   26.22
 -11   1   0  428.12   23.46
  11   1   1   12.64    5.25
  11  -1   1    6.65    3.82
  11   1   2    3.24    3.02
  11  -1   2    2.00    2.77
  11   1   3  306.53   25.65
  11  -1   3  282.44   24.12
  11   1   4   21.77    7.61
  11  -1   4   16.48    5.65
  11  -1   4   17.55    3.04
  11   1   5  259.96   11.98
  11  -1   5  240.39   11.57
  11   1   6   53.75    5.55
  11  -1   6   43.90    5.26
  11  -1   7  318.79   13.82
  11   1   7  307.20   13.38
  11  -1   8   25.74    3.94
  11   1   8   20.60    3.73
  11  -1   8   19.49    3.70
  11  -1   9  253.88   12.20
  11   1   9  245.73   11.70
  11  -1   9  214.04   11.10
  11  -1  10  260.76   11.96
  11   1  10  264.94   11.59
  11  -1  10  233.97   10.53
  11  -1  11  142.08    8.26
  11   1  11  124.83    7.84
  11  -1  12   21.12    3.02
  11  -1  12   14.17    2.18
  11   1  12   17.37    2.68
  11   1  13   12.19    1.96
 -11   3  18   92.28    4.77
 -11   3  17   34.19    3.64
 -11   3  16   29.00    3.71
 -11   3  15   22.60    4.07
  11  -3 -14  300.72   16.42
  11  -3 -13  128.37   11.21
  11  -3 -12   14.74    5.53
  11  -3 -12   20.24    4.96
  11  -3 -11    7.85    3.73
  11   3 -11    4.50    2.19
  11  -3 -11   10.22    5.45
  11   3 -10  405.04   14.48
  11  -3 -10  414.96   18.50
  11  -3  -9   25.22    4.45
  11  -3  -9   28.11    7.75
  11   3  -9   31.27    4.16
  11  -3  -8  224.46   12.42
  11   3  -8  222.99   10.44
 -11   3   8  234.42   20.78
  11  -3  -7   -0.82    3.49
 -11   3   7    2.73    3.57
  11  -3  -7    3.71    1.96
  11   3  -7    3.63    1.80
  11  -3  -6   29.81    7.82
 -11   3   6   29.55    7.08
 -11   3   5  329.67   23.85
  11  -3  -5  316.77   24.21
 -11   3   4    3.12    3.51
 -11   3   3  603.51   32.83
 -11   3   2   85.09   12.31
 -11   3   1    3.35    4.48
 -11   3   0   -1.12    4.19
 -11   3  -1   67.62   11.11
  11   3   2    6.71    5.15
 -11   3  -2   10.80    5.37
  11   3   2   14.21    2.67
  11  -3   3   61.51    6.81
  11   3   3   63.88    5.90
  11  -3   4    4.67    2.36
  11   3   4    0.31    1.75
  11  -3   5  269.09   14.46
  11   3   5  286.74   12.75
  11  -3   6  176.38   11.63
  11   3   6  187.52   10.60
  11  -3   7  114.69    9.20
  11  -3   8    3.78    2.63
  11  -3   9    8.36    3.24
  11   3   9    8.17    2.34
  11  -3  10   20.06    3.86
  11   3  10   18.40    3.17
  11  -3  11   52.68    5.33
  11   3  11   54.25    4.56
  11  -3  12   11.74    2.37
  11   3  12   13.85    2.09
 -11   5  16   -1.17    0.97
 -11   5  15  105.32    6.24
 -11   5  14   55.15    5.13
  11  -5 -13    7.93    4.65
 -11   5  13   21.49    4.16
  11  -5 -12  100.15   12.35
  11  -5 -11    2.47    5.53
  11   5 -11    3.63    2.35
  11  -5 -10  130.83   16.90
  11   5 -10  111.39    7.99
  11  -5  -9    8.47    6.25
  11   5  -9    9.87    2.97
  11  -5  -8   27.33    8.62
  11   5  -8   37.43    4.92
  11  -5  -7  480.04   31.30
  11   5  -7  389.07   15.62
  11  -5  -6   15.55    7.02
  11  -5  -5   83.90   12.77
  11  -5  -4   78.60   11.09
  11  -5  -3   66.60    9.88
  11  -5  -2  366.06   22.22
  11  -5  -1  216.57   16.57
  11  -5   0  188.79   14.96
  11  -5   0  157.44   10.47
  11  -5   1  238.83   16.41
  11  -5   2  349.43   19.10
  11  -5   3  109.65   11.53
  11  -5   4   92.96    9.31
  11  -5   5    6.72    3.54
  11  -5   6   49.84    6.84
  11   5   6   44.86    4.41
  11  -5   7   23.18    4.79
  11   5   7   23.01    3.31
  11  -5   8   -4.25    2.93
  11   5   8    2.45    1.21
  11  -5   9    7.26    3.11
  11   5   9    7.97    1.71
  11  -5  10   55.42    5.91
  11   5  10   39.85    3.10
  11  -5  11   56.11    5.28
  11  -7 -12  192.42   13.44
  11  -7 -11   35.08    7.95
  11  -7 -10   27.82    7.44
  11  -7  -9  197.42   18.93
  11  -7  -8    3.80    5.86
  11  -7  -7   16.20    9.28
  11  -7  -6  105.81   15.91
  11  -7  -5   77.99   13.81
  11  -7  -4   14.88    6.04
  11  -7  -3   89.04   13.87
  11  -7  -2   47.25    9.35
  11  -7  -1   -2.08    4.50
  11  -7   0  102.43   12.23
  11  -7   1   84.94   10.90
  11  -7   2   53.43    8.84
  11  -7   3   17.11    5.84
  11  -7   4    4.28    3.63
  11  -7   5   16.20    4.28
  11  -7   6    5.63    3.84
  11  -7   7   17.02    3.82
  11  -7   8   12.07    2.98
  11  -9  -8   -1.13    2.84
  11  -9  -7   22.54    5.93
  11  -9  -6   80.65   10.50
  11  -9  -5   65.71    9.97
  11  -9  -4   22.61    6.84
  11  -9  -3    5.85    4.52
  11  -9  -2   11.80    5.17
  11  -9  -1   28.13    6.82
  11  -9   0    8.46    4.45
  11  -9   1   12.58    4.80
  11  -9   2   31.91    5.88
  11  -9   3   51.99    6.90
 -12   0  17    1.11    1.38
 -12   0  16   59.55    5.11
 -12   0  15   -0.24    1.95
  12   0 -14   92.31    6.16
 -12   0  14   95.22    7.29
  12   0 -14   92.36    9.82
  12   0 -13   -1.35    3.45
  12   0 -13   -2.01    1.12
  12   0 -12 1117.46   23.98
  12   0 -12 1189.88   35.08
  12   0 -11   -0.66    2.43
  12   0 -10  221.05   13.58
 -12   0   9    4.74    4.45
  12   0  -9   -1.56    1.71
 -12   0   8    5.32    5.05
 -12   0   7    2.58    2.56
 -12   0   6  545.32   30.04
 -12   0   5   -2.52    3.17
 -12   0   4   15.05    5.89
 -12   0   3   -3.59    3.56
 -12   0   2  338.49   20.89
  12   0   0  171.24   18.33
  12   0   1   -6.26    4.69
  12   0   2   44.13   10.67
  12   0   3   -0.38    3.77
  12   0   3   -2.60    1.72
  12   0   4  751.91   21.35
  12   0   5    0.51    1.62
  12   0   6   39.99    5.24
  12   0   7   -0.44    1.93
  12   0   8  117.05    8.43
  12   0   9    1.64    1.40
  12   0  10 1074.10   22.73
  12   0  11    0.71    1.27
  12   0  12   17.34    2.29
 -12   2  18   26.47    2.54
 -12   2  17   39.27    3.85
 -12   2  16   23.84    3.65
 -12   2  15   54.14    5.42
  12  -2 -14    5.31    3.67
  12  -2 -13   10.96    4.00
  12   2 -13   16.26    2.95
  12   2 -12   38.39    6.52
  12  -2 -12   39.12    6.85
  12   2 -12   34.68    4.20
  12   2 -11  177.78    9.31
  12   2 -11  157.23   11.85
  12  -2 -11  186.61   12.99
  12  -2 -10    8.66    3.24
  12   2 -10    6.24    2.43
  12  -2  -9    2.67    2.60
  12   2  -9    2.91    2.02
  12  -2  -8    8.55    2.60
  12   2  -8   10.56    2.33
  12  -2  -7  269.45   13.14
  12   2  -7  262.64   11.06
 -12   2   7  289.17   23.19
  12  -2  -7  243.36   22.61
 -12   2   6  197.73   18.69
  12  -2  -6  175.59   18.75
 -12   2   5   81.26   11.97
 -12   2   4   49.62    9.14
 -12   2   3   56.87    9.99
 -12   2   2   46.65    9.17
 -12   2   1    8.05    4.29
 -12   2   0  161.77   17.55
  12   2   1   44.37   11.07
  12   2   1   41.59    4.50
  12   2   2    2.85    2.02
  12   2   3   15.42    3.08
  12   2   4    9.63    2.74
  12   2   5  617.50   19.46
  12  -2   6  278.30   13.92
  12   2   6  270.51   12.95
  12  -2   7   89.36    7.78
  12   2   7   83.89    7.27
  12  -2   8    5.43    2.73
  12   2   8    5.86    2.61
  12  -2   9    9.54    2.81
  12   2   9    4.93    2.31
  12  -2  10    3.33    1.76
  12   2  10    3.32    1.55
  12  -2  11   -1.18    1.56
  12   2  11    0.07    1.31
  12   2  12   63.41    4.12
 -12   4  17    6.42    1.58
 -12   4  16   97.30    5.85
 -12   4  15  189.87    8.96
 -12   4  14    9.63    2.95
  12  -4 -13    7.51    3.95
  12  -4 -13    4.24    2.73
  12  -4 -12   18.95    6.07
  12  -4 -12   14.47    4.15
  12  -4 -11   20.46    7.21
  12  -4 -11   22.97    4.97
  12  -4 -10  437.35   29.40
  12  -4 -10  390.09   18.05
  12  -4  -9  216.52   21.29
  12  -4  -9  181.36   11.83
  12  -4  -8  106.53   15.43
  12  -4  -8   79.74    7.75
  12  -4  -7  155.66   10.44
  12  -4  -7  221.98   20.28
  12  -4  -6   10.90    6.84
  12  -4  -6    2.34    2.08
  12  -4  -5   12.25    5.85
  12  -4  -5    3.84    1.74
  12  -4  -4  114.66   13.26
  12  -4  -4   87.46    8.01
  12  -4  -3   59.13    6.56
  12  -4  -3   70.74   10.03
  12  -4  -2  204.72   15.76
  12  -4  -2  208.89   11.64
  12  -4  -1    0.90    3.36
  12  -4  -1    2.25    1.83
  12   4  -1    5.57    1.95
  12  -4   0   56.40    8.13
  12   4   0   61.06    5.66
  12  -4   1   20.98    5.64
  12   4   1   16.62    2.93
  12  -4   2   54.21    8.32
  12   4   2   50.98    5.24
  12  -4   3   13.86    4.41
  12   4   3   11.74    2.66
  12  -4   4  150.36   11.99
  12   4   4  172.05    9.41
  12  -4   5  111.33    9.82
  12   4   5  115.53    7.74
  12  -4   6   54.19    7.06
  12   4   6   64.33    5.70
  12  -4   7   61.32    6.76
  12   4   7   61.60    5.37
  12  -4   8   11.74    3.23
  12   4   8   13.05    2.44
  12  -4   9   38.91    4.85
  12   4   9   39.65    3.75
  12  -4  10    3.35    2.62
  12   4  10    0.55    1.03
  12  -4  11   25.45    3.61
  12   4  11   19.53    2.17
 -12   6  14    5.08    1.46
 -12   6  13   96.21    5.61
  12  -6 -12    8.47    4.90
 -12   6  12    3.76    1.86
  12  -6 -11   26.19    7.18
  12  -6 -10    9.36    6.56
  12  -6  -9   72.63   12.99
  12  -6  -8    1.32    6.57
  12  -6  -7  428.29   30.21
  12  -6  -6   37.51   10.01
  12  -6  -5   35.94    9.28
  12  -6  -4   37.95    8.76
  12  -6  -3  477.07   28.02
  12  -6  -2    7.79    6.32
  12  -6  -1   -0.12    4.36
  12  -6   0    4.69    4.94
  12  -6   1   15.96    5.34
  12  -6   2   60.78    8.56
  12  -6   3   53.85    8.23
  12  -6   4   91.44    9.88
  12  -6   5   74.69    8.45
  12  -6   6  163.47   11.53
  12  -6   7   44.62    6.08
  12  -6   8   -0.53    2.39
  12  -6   9   10.18    2.43
  12  -8 -11   -3.23    2.04
  12  -8 -10   97.05    9.07
  12  -8  -9    5.13    3.58
  12  -8  -8   12.11    5.74
  12  -8  -7   74.77   11.31
  12  -8  -6   98.44   13.44
  12  -8  -5   53.90   10.19
  12  -8  -4   56.18   10.45
  12  -8  -3   36.30    8.17
  12  -8  -2    6.74    5.38
  12  -8  -1   69.03   10.61
  12  -8   0   24.09    6.98
  12  -8   1   67.62    9.68
  12  -8   2   -2.82    4.94
  12  -8   3  128.71   10.95
  12  -8   4   -2.91    3.08
  12  -8   5    4.78    2.80
 -13   1  17  108.61    5.78
 -13   1  16   20.19    2.95
  13  -1 -15   23.56    2.88
 -13   1  15   27.60    3.73
  13  -1 -14    2.94    2.73
  13   1 -14    2.35    1.32
  13  -1 -14    4.38    1.65
  13   1 -13  115.85    7.38
  13   1 -13  123.53   11.04
  13  -1 -13  120.26   11.00
  13  -1 -12    8.47    3.68
  13   1 -12   11.76    4.29
  13   1 -12   11.39    2.91
  13   1 -11  461.76   15.30
  13   1 -11  452.68   20.45
  13  -1 -11  471.86   20.95
  13   1 -10  576.77   17.20
  13   1 -10  573.75   22.65
  13  -1 -10  567.57   21.87
  13   1  -9  153.96    8.96
  13   1  -9  160.92   11.31
  13  -1  -9  160.40   11.17
  13   1  -8   30.84    4.70
  13  -1  -8   25.53    4.31
  13   1  -8   30.09    4.02
  13   1  -7   49.77    5.96
  13  -1  -7   55.47    6.42
 -13  -1   7   68.36   11.72
 -13   1   7   58.19   10.74
  13   1  -7   50.18    4.93
 -13  -1   6    2.75    2.90
 -13   1   6   10.56    6.01
  13  -1  -6    5.99    2.16
  13   1  -6    4.72    2.12
  13  -1  -5   74.34    6.88
 -13  -1   5   74.55   11.35
 -13   1   5   82.81   12.39
 -13   1   4   64.35   10.13
 -13   1   3  333.41   23.76
 -13   1   2    2.73    2.81
  13   1  -1  866.42   21.92
  13  -1   0  818.30   21.20
  13   1   0  851.99   21.72
  13  -1   1 1149.24   25.59
  13   1   1 1252.67   26.91
  13  -1   2   33.48    4.36
  13   1   2   33.68    4.33
  13  -1   3  196.45   10.34
  13   1   3  211.03   11.00
  13  -1   4   52.11    5.36
  13   1   4   51.41    5.86
  13  -1   5    8.81    2.60
  13   1   5    9.15    2.85
  13  -1   6   47.75    5.43
  13   1   6   53.42    5.87
  13  -1   7  185.74    9.66
  13   1   7  185.55   10.58
  13  -1   8    8.04    2.19
  13   1   8   10.54    2.74
  13  -1   9  234.78    9.82
  13   1   9  274.89   11.13
  13  -1  10    3.28    1.32
  13   1  10   -0.29    1.14
  13  -1  11  214.34    7.15
  13   1  11  257.47    8.56
 -13   3  17   87.74    4.85
 -13   3  16  179.73    8.21
  13  -3 -15    9.85    1.78
 -13   3  15   16.38    3.11
  13  -3 -14   13.11    3.85
  13  -3 -13   21.99    4.93
  13  -3 -12  147.83   11.68
  13  -3 -11   70.14    8.00
  13  -3 -10    7.04    3.18
  13   3 -10    4.20    1.87
  13   3  -9  212.60   10.74
  13  -3  -9  212.05   12.94
  13  -3  -8    4.39    2.74
  13   3  -8    6.16    2.28
  13  -3  -7   79.29    7.75
  13   3  -7   78.96    6.57
  13  -3  -6   32.79    5.10
  13   3  -6   34.08    4.28
  13  -3  -5   80.88    7.55
  13   3  -5   84.05    6.64
  13  -3  -4   19.52    3.95
  13  -3  -3   25.83    4.95
  13  -3  -2    0.08    1.70
  13   3  -1   23.85    3.79
  13   3   0  294.44   12.66
  13   3   1   28.18    4.30
  13   3   2   95.58    7.27
  13  -3   3  472.17   20.54
  13   3   3  484.32   16.45
  13  -3   4   94.45    9.20
  13   3   4   93.26    7.23
  13  -3   5  414.19   18.79
  13   3   5  437.24   15.54
  13  -3   6   18.47    4.03
  13   3   6   22.21    3.65
  13  -3   7   84.24    7.78
  13   3   7   81.03    6.39
  13  -3   8  129.88    9.20
  13   3   8  125.78    7.27
  13  -3   9    4.00    2.02
  13   3   9    4.53    1.57
  13  -3  10    4.65    1.82
  13   3  10    4.08    1.33
  13   3  11   83.63    4.18
 -13   5  15   59.44    4.14
 -13   5  14   21.81    3.07
 -13   5  13  210.90    9.72
  13  -5 -12    3.48    3.63
  13  -5 -12    3.36    2.66
  13  -5 -11   19.36    6.81
  13  -5 -11   19.04    4.05
  13  -5 -10    5.83    6.13
  13  -5 -10    0.16    2.04
  13  -5  -9  103.19   14.13
  13  -5  -9   84.59    8.20
  13  -5  -8   96.51   14.42
  13  -5  -8   96.64    8.39
  13  -5  -7   89.21   15.04
  13  -5  -7   83.43    7.80
  13  -5  -6  348.48   15.15
  13  -5  -6  365.12   26.92
  13  -5  -5  121.65    8.73
  13  -5  -5  111.91   14.52
  13  -5  -4   11.12    5.80
  13  -5  -4   18.57    3.61
  13  -5  -3  101.93    8.60
  13  -5  -3  102.87   13.24
  13  -5  -2  137.48   14.58
  13  -5  -2  145.15    9.84
  13  -5  -1   97.48    8.31
  13  -5  -1  107.41   12.46
  13  -5   0  752.67   30.51
  13  -5   0  747.92   22.20
  13  -5   1   11.94    5.67
  13  -5   1    8.35    2.86
  13  -5   2   -1.07    3.55
  13  -5   2   -2.96    2.52
  13  -5   3  151.15   12.81
  13  -5   4    1.18    3.45
  13   5   4    1.01    1.12
  13  -5   5   28.14    5.81
  13   5   5   34.91    3.80
  13  -5   6    0.38    3.12
  13   5   6    3.35    1.37
  13  -5   7   27.62    4.96
  13   5   7   23.48    2.70
  13  -5   8  123.83    8.69
  13   5   8  111.40    5.34
  13  -5   9   19.91    3.51
  13  -7 -12    5.36    3.06
  13  -7 -11   63.33    8.00
  13  -7 -10   73.65    9.36
  13  -7  -9   12.25    5.48
  13  -7  -8   -1.09    4.91
  13  -7  -7   23.40    7.20
  13  -7  -6   18.29    8.46
  13  -7  -5   27.71    8.03
  13  -7  -4    9.34    6.78
  13  -7  -3   53.19   10.33
  13  -7  -2   35.92    8.60
  13  -7  -1   19.66    7.48
  13  -7   0   10.06    6.12
  13  -7   1    6.95    4.95
  13  -7   2   20.53    6.32
  13  -7   3   67.71    8.97
  13  -7   4   87.46    8.73
  13  -7   5    8.17    3.12
  13  -7   6  520.55   17.86
  13  -9  -4    6.41    3.85
  13  -9  -3   35.80    6.23
  13  -9  -2   50.06    7.26
 -14   0  16   56.16    4.21
  14   0 -15   -0.20    1.25
 -14   0  15   -0.72    1.56
  14   0 -14  131.77    7.09
 -14   0  14  126.12    7.55
  14   0 -14  147.84   11.29
  14   0 -13    1.88    2.82
  14   0 -13   -1.99    1.21
  14   0 -12   98.14    7.04
  14   0 -12   93.17    9.46
  14   0 -11    1.01    2.59
  14   0 -11    3.29    2.19
  14   0 -10  116.26   10.08
  14   0  -9    1.56    3.01
  14   0  -8  109.97    8.81
  14   0  -7    0.75    2.17
  14   0  -6  115.13    8.75
 -14   0   5    1.21    3.89
  14   0  -5   -0.05    1.72
  14   0  -4  297.65   13.53
  14   0  -3    0.27    1.89
  14   0  -2   68.66    7.51
  14   0  -1   -0.63    1.81
  14   0  -1    1.31    1.82
  14   0   0  783.93   22.06
  14   0   1    1.49    1.91
  14   0   2  527.30   18.01
  14   0   3   -0.99    1.49
  14   0   4   51.87    5.75
  14   0   5    0.76    1.72
  14   0   6  122.49    8.14
  14   0   7   -0.67    1.32
  14   0   8    5.24    2.02
  14   0   9    1.90    1.36
  14   0  10  300.62    9.32
 -14   2  17   42.39    3.29
 -14   2  16   12.11    2.57
  14  -2 -15   14.78    2.22
 -14   2  15   14.36    2.72
  14  -2 -14   18.88    4.49
  14  -2 -14   18.37    2.86
  14  -2 -13    2.86    2.83
  14   2 -13   -0.12    1.42
  14   2 -12   78.54    6.42
  14   2 -12   77.09    8.21
  14  -2 -12   83.44    8.96
  14  -2 -11   46.93    6.84
  14   2 -11   54.16    5.22
  14   2 -10  116.95    7.95
  14  -2 -10  108.80    9.83
  14   2  -9   64.56    5.99
  14  -2  -9   55.27    7.21
  14  -2  -8   21.53    4.25
  14   2  -8   16.95    3.19
  14  -2  -7  229.13   12.69
  14   2  -7  214.04   10.55
  14  -2  -6  153.63   10.44
  14   2  -6  155.18    8.88
  14  -2  -5  135.79    9.88
  14   2  -5  142.81    8.50
  14  -2  -4   16.97    3.65
  14   2  -4   19.71    3.16
  14  -2  -3   -2.62    2.32
  14   2  -3    3.06    1.83
  14  -2  -2    9.28    3.43
  14  -2  -1   -2.56    2.98
  14   2  -1    2.47    1.88
  14   2   0   76.89    7.15
  14   2   1    3.48    1.45
  14  -2   2  163.59    9.13
  14   2   2  183.79   10.15
  14  -2   3  386.42   14.00
  14   2   3  404.74   15.26
  14   2   4    7.10    2.88
  14   2   5   23.29    3.78
  14   2   6  185.76    9.84
  14   2   7   53.64    5.18
  14   2   8   12.15    2.43
  14   2   9    4.05    1.53
  14   2  10    0.29    1.01
 -14   4  16   28.62    2.77
  14  -4 -15    3.51    1.00
 -14   4  15    2.49    1.45
 -14   4  14  110.84    6.81
  14  -4 -13   36.39    5.17
  14  -4 -12  153.11   10.80
  14  -4 -11   -0.09    2.18
  14  -4 -10    2.23    2.23
  14  -4  -9  134.81    9.96
  14  -4  -8  248.03   13.55
  14  -4  -7   21.49    4.30
  14  -4  -6  279.25   14.27
  14  -4  -5  208.56   11.87
  14  -4  -4   56.63    6.58
  14  -4  -3    8.80    2.64
  14  -4  -2   37.76    5.54
  14  -4  -2   31.77    7.23
  14  -4  -1  177.62   14.92
  14  -4  -1  151.92   10.74
  14  -4   0   22.80    6.57
  14  -4   0   20.79    4.57
  14  -4   1   35.47    6.56
  14  -4   1   26.42    4.65
  14   4   1   33.43    4.16
  14  -4   2   17.52    5.95
  14   4   2   22.04    3.64
  14  -4   3   10.44    4.51
  14   4   3   11.64    2.66
  14  -4   4   50.15    7.42
  14   4   4   62.53    5.39
  14  -4   5   -0.34    2.65
  14   4   5   -0.80    1.22
  14  -4   6    1.54    2.32
  14   4   6    2.23    1.41
  14  -4   7  153.52   10.08
  14   4   7  136.26    7.02
  14  -4   8   38.74    4.76
  14   4   8   30.66    3.02
  14   4   9    0.37    0.77
  14  -6 -12    2.08    2.15
 -14   6  12    1.32    1.36
  14  -6 -11   48.63    7.06
  14  -6 -10  258.41   17.97
  14  -6  -9  135.87   14.27
  14  -6  -8    5.73    5.93
  14  -6  -7   18.01    7.05
  14  -6  -6  381.61   27.60
  14  -6  -5   72.97   11.47
  14  -6  -4   14.54    5.76
  14  -6  -3   22.35    6.25
  14  -6  -2    0.33    5.04
  14  -6  -1   56.61    9.39
  14  -6   0    7.35    4.57
  14  -6   1   84.55   10.03
  14  -6   2   18.66    5.68
  14  -6   3   -4.59    3.53
  14  -6   4    1.71    3.10
  14  -6   5   17.49    3.97
  14  -6   6    1.22    2.24
  14  -8  -8    5.04    3.09
  14  -8  -7   -1.18    3.15
  14  -8  -6    6.18    4.07
  14  -8  -5   31.51    6.62
  14  -8  -4   13.33    6.37
  14  -8  -3  114.71   12.37
  14  -8  -2   20.64    6.00
  14  -8  -1   10.41    4.66
  14  -8   0    5.49    4.12
  14  -8   1   -2.13    3.25
  14  -8   2   55.81    6.60
 -15   1  16   60.24    4.19
  15  -1 -15    2.53    1.08
 -15   1  15    4.39    1.90
  15  -1 -14   -0.04    2.87
  15   1 -14    1.59    1.08
  15  -1 -14    0.94    1.16
  15   1 -13    1.25    2.61
  15  -1 -13    4.75    3.50
  15   1 -13    2.65    1.53
  15  -1 -13    4.76    1.86
  15   1 -12    9.07    3.17
  15  -1 -12   11.11    4.33
  15   1 -12    9.41    2.34
  15  -1 -12   10.95    2.57
  15   1 -11   63.46    5.71
  15   1 -11   65.82    7.83
  15  -1 -11   71.94    8.11
  15   1 -10   22.71    4.70
  15  -1 -10   19.09    4.65
  15   1 -10   21.25    3.59
  15   1  -9  536.66   17.01
  15   1  -9  530.01   20.49
  15  -1  -9  570.41   21.31
  15   1  -8   33.03    5.02
  15  -1  -8   38.96    5.49
  15   1  -8   38.22    4.47
  15   1  -7  389.72   16.70
  15  -1  -7  414.95   17.15
  15   1  -7  402.37   14.51
  15   1  -6   70.06    6.95
  15  -1  -6   78.77    7.50
  15   1  -6   75.06    6.11
  15   1  -5  244.53   12.54
  15  -1  -5  247.85   13.07
  15   1  -5  252.34   11.02
  15   1  -4   11.12    2.66
  15  -1  -4   13.02    3.32
  15   1  -4   17.26    2.84
  15   1  -3  126.09    8.67
  15  -1  -3  118.16    9.22
  15   1  -2  122.98    8.57
  15  -1  -2  126.26    9.54
  15   1  -1   44.62    5.35
  15  -1  -1   42.43    5.68
  15   1   0  167.75   10.40
  15   1   0  187.85   10.71
  15   1   1   12.32    3.46
  15  -1   1   24.83    4.48
  15   1   1   14.17    3.89
  15  -1   2  282.87   12.70
  15   1   2  306.49   13.78
  15  -1   3  349.28   13.91
  15   1   3  371.30   14.96
  15  -1   4  201.65   10.32
  15   1   4  204.55   10.89
  15   1   5   36.45    4.65
  15  -1   5   26.93    3.73
  15  -1   6    1.72    1.49
  15   1   6    0.76    1.58
  15  -1   7  123.83    6.93
  15   1   7  116.93    7.30
  15  -1   8   15.98    2.37
  15   1   8   16.60    2.69
  15   1   9    7.05    1.74
 -15   3  16    8.30    1.73
  15  -3 -15    4.87    1.35
 -15   3  15    3.90    1.73
  15  -3 -14    2.60    2.38
  15  -3 -14   -1.01    0.87
  15  -3 -13    6.60    2.96
  15  -3 -12   18.80    4.80
  15  -3 -11    7.26    3.08
  15  -3 -10  187.16   12.24
  15  -3  -9   24.66    4.94
  15  -3  -8   36.51    5.56
  15  -3  -7   12.18    3.70
  15  -3  -6  184.02   11.61
  15  -3  -5  715.30   22.73
  15  -3  -4  147.54   10.17
  15  -3  -3  723.59   22.78
  15  -3  -2   76.48    7.36
  15  -3  -1  432.50   17.86
  15  -3   0  330.18   15.88
  15   3   1  258.08   12.14
  15   3   2    8.35    2.67
  15   3   3    2.20    1.94
  15   3   4   15.49    2.97
  15   3   5    4.97    2.07
  15   3   6    4.24    1.77
  15   3   7   60.54    4.80
  15   3   8   96.06    5.24
  15   3   9    0.04    0.70
 -15   5  14   54.00    3.76
 -15   5  13   20.63    2.64
  15  -5 -12   10.09    2.65
  15  -5 -11   23.75    3.86
  15  -5 -10   50.38    5.83
  15  -5  -9    3.59    4.21
  15  -5  -9    4.14    2.04
  15  -5  -8   52.30   10.23
  15  -5  -8   40.93    5.19
  15  -5  -7    3.78    5.61
  15  -5  -7    7.08    2.24
  15  -5  -6   13.85    7.42
  15  -5  -6    9.55    3.03
  15  -5  -5   69.96    6.73
  15  -5  -5   63.58   11.45
  15  -5  -4   -0.76    5.03
  15  -5  -4    2.99    2.34
  15  -5  -3  157.60   16.10
  15  -5  -3  158.60    9.84
  15  -5  -2    9.91    4.36
  15  -5  -2    5.18    1.95
  15  -5  -1  233.88   18.59
  15  -5  -1  253.58   12.01
  15  -5   0   90.31   11.33
  15  -5   0   96.14    7.46
  15  -5   1   68.38    6.16
  15  -5   1   67.51    8.99
  15  -5   2   51.42    5.26
  15  -5   2   50.91    7.52
  15  -5   3   11.31    3.98
  15  -5   3   10.13    2.86
  15  -5   4   24.09    5.10
  15  -5   4   23.66    3.34
  15  -5   5   32.26    3.61
  15  -5   5   39.77    5.53
  15  -5   6   45.07    3.92
  15  -5   6   52.29    5.57
  15  -7  -9   -2.00    2.75
  15  -7  -8   -0.52    3.40
  15  -7  -7    9.00    5.32
  15  -7  -6    9.64    4.35
  15  -7  -5   -2.13    4.11
  15  -7  -4  129.16   13.81
  15  -7  -3   70.92   10.32
  15  -7  -2   51.99    8.88
  15  -7  -1   -5.61    4.55
  15  -7   0  175.81   13.88
  15  -7   1   30.65    6.30
  15  -7   2    4.24    3.32
  16   0 -15    0.49    0.96
  16   0 -14   11.73    3.43
  16   0 -14   10.88    2.09
 -16   0  14   11.73    2.18
  16   0 -13   -0.67    2.91
  16   0 -13   -1.11    1.48
  16   0 -12  251.89   10.45
  16   0 -12  239.21   13.68
  16   0 -11    3.67    2.77
  16   0 -11    1.00    1.49
  16   0 -10  140.23    8.23
  16   0 -10  132.06   10.66
  16   0  -9    2.26    2.58
  16   0  -9   -1.03    1.35
  16   0  -8   77.62    6.18
  16   0  -8   76.95    7.89
  16   0  -7    3.06    2.58
  16   0  -7    0.86    1.30
  16   0  -6    6.27    3.22
  16   0  -6    5.33    2.48
  16   0  -5    1.23    1.96
  16   0  -5    1.49    1.36
  16   0  -4   21.22    4.03
  16   0  -4   21.33    3.17
  16   0  -3    2.15    1.66
  16   0  -2  930.92   25.46
  16   0  -1    1.34    1.81
  16   0   0   67.72    7.18
  16   0   1   -0.86    2.07
  16   0   2  252.81   12.90
  16   0   2  300.38   13.17
  16   0   3   -0.50    1.62
  16   0   4   36.22    4.35
  16   0   5   -1.29    1.80
  16   0   6   24.53    3.35
  16   0   7    1.72    1.06
  16   0   8   18.60    2.68
  16  -2 -15  122.39    5.25
 -16   2  15  135.83    6.66
  16  -2 -14  150.27    6.81
  16  -2 -14  153.55   10.34
  16  -2 -13    6.86    2.68
  16  -2 -13    7.85    1.91
  16  -2 -12   68.36    7.59
  16  -2 -11   -0.66    2.70
  16   2 -11    0.57    1.35
  16  -2 -10   -5.61    3.17
  16   2 -10    1.96    1.96
  16  -2  -9    0.12    2.46
  16   2  -9    3.25    1.71
  16  -2  -8    1.81    2.39
  16   2  -8    2.16    1.68
  16  -2  -7  117.80    9.40
  16   2  -7  125.75    8.03
  16  -2  -6   35.11    5.17
  16   2  -6   32.36    4.20
  16  -2  -5  353.71   16.08
  16   2  -5  346.18   12.97
  16  -2  -4   26.25    4.69
  16  -2  -3  356.30   16.13
  16  -2  -2  124.22    9.44
  16  -2  -1    6.99    2.95
  16  -2   0  404.58   17.70
  16  -2   1   66.73    7.23
  16   2   2    5.96    2.68
  16   2   3   -0.03    1.69
  16   2   4   28.36    3.94
  16   2   5  109.48    7.00
  16   2   6    2.93    1.61
  16   2   7  122.74    6.35
  16  -2   8   67.21    4.87
  16   2   8   76.98    4.45
  16  -4 -14   37.86    2.86
 -16   4  14   46.05    3.84
  16  -4 -13    5.07    2.05
  16  -4 -12  128.74    8.98
  16  -4 -11   49.98    5.95
  16  -4 -10  130.44    9.65
  16  -4  -9   66.73    7.02
  16  -4  -8   19.08    3.89
  16  -4  -7   70.52    7.14
  16  -4  -6   20.39    4.09
  16  -4  -5    2.36    2.49
  16  -4  -4   19.41    4.03
  16  -4  -3   13.13    3.31
  16  -4  -2   16.51    3.51
  16  -4  -1  184.72   11.37
  16  -4   0  438.81   16.73
  16  -4   1   32.80    4.79
  16  -4   2   16.43    3.41
  16  -4   3   58.87    5.80
  16  -4   4   12.48    2.91
  16  -4   5   45.83    4.56
  16  -4   6    7.72    1.92
  16  -6  -8   18.30    5.26
  16  -6  -7   47.00    7.90
  16  -6  -6   53.16    9.61
  16  -6  -5   75.39   10.61
  16  -6  -4   48.57    8.82
  16  -6  -3    9.32    5.30
  16  -6  -2   13.60    5.22
  16  -6  -1   14.84    5.72
  16  -6   0    0.48    3.50
  16  -6   1   13.92    5.15
  16  -6   2   19.04    4.83
  17  -1 -15   16.12    1.90
  17  -1 -14    6.47    2.82
  17  -1 -14    6.14    1.54
 -17   1  14    5.90    1.80
  17   1 -13    4.41    2.42
  17  -1 -13    2.08    2.55
  17   1 -13    1.67    1.23
  17  -1 -13    5.47    1.73
  17   1 -12   68.75    5.28
  17  -1 -12   70.22    5.30
  17   1 -12   62.98    6.52
  17  -1 -12   61.66    7.12
  17   1 -11  221.53    9.91
  17  -1 -11  223.69    9.78
  17   1 -11  211.12   12.02
  17  -1 -11  230.67   13.18
  17   1 -10  143.71    8.04
  17  -1 -10  140.13    8.03
  17   1 -10  128.88    9.61
  17  -1 -10  148.87   10.39
  17   1  -9    5.91    2.59
  17  -1  -9    6.60    2.76
  17   1  -9    4.08    1.75
  17  -1  -9    3.47    1.89
  17   1  -8    4.92    2.54
  17  -1  -8    1.32    2.21
  17   1  -8    5.60    2.29
  17  -1  -8    5.90    2.22
  17  -1  -7  305.85   14.92
  17   1  -7  294.69   11.67
  17  -1  -7  288.01   11.46
  17   1  -7  281.16   13.79
  17   1  -6   12.56    2.95
  17  -1  -6   17.55    4.06
  17   1  -6   15.48    2.92
  17  -1  -6   13.05    2.46
  17   1  -5   33.40    4.76
  17  -1  -5   35.84    5.09
  17   1  -5   33.75    3.96
  17  -1  -5   32.05    3.74
  17   1  -4  374.40   15.04
  17  -1  -4  394.26   16.49
  17   1  -3  382.01   15.18
  17  -1  -3  400.90   16.73
  17   1  -2  112.83    7.96
  17  -1  -2  119.45    8.93
  17   1  -1   25.46    4.01
  17  -1  -1   24.90    4.37
  17   1   0  195.45   10.29
  17  -1   0  205.08   11.98
  17   1   1    2.88    1.78
  17  -1   1    2.10    2.00
  17  -1   2   -1.03    1.84
  17  -1   3    7.75    2.69
  17  -1   4  223.88   11.14
  17  -1   5   21.12    3.32
  17  -1   6   -0.06    1.41
  17  -1   7    8.99    1.91
  17  -3 -14   14.16    1.87
 -17   3  14   13.42    2.21
  17  -3 -13  154.63    6.73
  17  -3 -13  161.92    9.48
  17  -3 -12    4.29    2.30
  17  -3 -12    7.94    1.72
  17  -3 -11    0.14    2.06
  17  -3 -10    5.12    2.74
  17  -3  -9    2.74    2.66
  17  -3  -8  195.73   11.89
  17  -3  -7  132.11    9.71
  17  -3  -6    1.63    2.03
  17  -3  -5   22.80    4.23
  17  -3  -4    2.71    2.30
  17  -3  -3   17.87    4.18
  17  -3  -2   57.34    6.27
  17  -3  -1   34.92    5.24
  17  -3   0   80.24    7.25
  17  -3   1    8.04    2.63
  17  -3   2   47.88    5.38
  17  -3   3   87.69    7.18
  17  -3   4   91.75    6.57
  17  -3   5   48.58    4.59
  17  -3   6    6.75    1.53
  17  -5 -11   75.02    5.41
  17  -5 -10   13.10    2.67
  17  -5  -9    3.22    2.09
  17  -5  -8  104.88    7.32
  17  -5  -7    3.64    2.01
  17  -5  -6    1.35    1.74
  17  -5  -5   10.03    2.48
  17  -5  -4    0.09    1.36
  17  -5  -3   25.16    3.71
  17  -5  -2   82.65    6.18
  17  -5  -1   23.40    3.49
  17  -5   0    0.18    1.28
  17  -5   1  126.49    7.08
  17  -5   2   16.62    2.60
  17  -5   3    3.58    1.32
  18   0 -13   -1.91    1.91
  18   0 -13   -1.12    1.11
  18   0 -12   38.73    4.94
  18   0 -12   42.15    3.90
  18   0 -11   -0.81    1.79
  18   0 -11    0.62    1.32
  18   0 -10  662.77   16.56
  18   0 -10  650.11   21.22
  18   0  -9   -2.16    1.92
  18   0  -9    0.36    1.55
  18   0  -8    5.67    2.74
  18   0  -8    3.51    1.50
  18   0  -7   -1.06    2.09
  18   0  -7    1.21    1.47
  18   0  -6   67.67    6.57
  18   0  -6   62.16    4.91
  18   0  -5   -1.99    1.91
  18   0  -5    0.42    1.12
  18   0  -4   43.45    5.38
  18   0  -3   -2.55    2.23
  18   0  -2  133.35    8.85
  18   0  -1    2.76    1.74
  18   0   0   13.94    3.39
  18   0   1    1.43    1.87
  18   0   2   38.58    4.66
  18   0   3   -3.22    1.80
  18   0   4   15.05    2.51
  18   0   5   -0.50    1.02
  18  -2 -14   81.72    4.05
  18  -2 -13   21.04    3.85
  18  -2 -13   20.34    2.34
  18  -2 -12    0.59    2.13
  18  -2 -12    2.39    1.50
  18  -2 -11   -3.92    2.20
  18  -2 -11    0.98    1.40
  18  -2 -10   27.86    4.58
  18  -2 -10   23.44    3.15
  18  -2  -9    0.02    1.96
  18  -2  -9    2.56    1.29
  18  -2  -8   66.80    5.20
  18  -2  -8   73.22    7.26
  18  -2  -7    0.36    2.05
  18  -2  -7    3.31    1.54
  18  -2  -6  228.45   12.24
  18  -2  -6  179.59    8.24
  18  -2  -5   56.20    6.32
  18  -2  -4   52.03    6.20
  18  -2  -3   26.39    4.57
  18  -2  -2   13.23    3.51
  18  -2  -1   35.02    4.93
  18  -2   0   19.35    3.99
  18  -2   1    5.95    1.92
  18  -2   2   25.63    3.76
  18  -2   3   95.03    6.63
  18  -2   4   12.18    2.35
  18  -2   5   26.54    3.08
  18  -4 -12   14.59    1.80
  18  -4 -11   31.39    3.92
  18  -4 -11   23.96    2.67
  18  -4 -10   -1.93    1.68
  18  -4  -9    1.64    1.70
  18  -4  -8   45.32    5.22
  18  -4  -7   20.43    3.62
  18  -4  -6    1.78    1.82
  18  -4  -5   16.27    3.06
  18  -4  -4    2.51    1.81
  18  -4  -3   93.20    7.05
  18  -4  -2   14.74    2.91
  18  -4  -1    4.56    2.21
  18  -4   0    6.65    2.13
  18  -4   1    1.73    1.62
  18  -4   2   10.78    2.19
  18  -4   3   46.54    3.93
  19  -1 -13    1.05    1.54
  19  -1 -13    0.89    0.80
  19  -1 -12   10.08    2.67
  19  -1 -12    9.94    1.76
  19  -1 -11  162.15    6.98
  19  -1 -11  145.94    9.51
  19  -1 -10    0.61    1.74
  19  -1 -10    1.29    1.14
  19  -1  -9  154.73    7.16
  19  -1  -9  158.09    9.79
  19  -1  -8   18.22    3.74
  19  -1  -8   18.02    2.60
  19  -1  -7    0.57    1.73
  19  -1  -7    1.70    1.10
  19  -1  -6    4.57    2.45
  19  -1  -6    0.63    0.94
  19  -1  -5    6.13    2.55
  19  -1  -4  157.62    9.71
  19  -1  -3   -2.07    1.94
  19  -1  -2   11.34    2.89
  19  -1  -1   19.70    3.61
  19  -1   0  142.06    8.33
  19  -1   1   74.66    5.69
  19  -1   2   37.18    3.83
  19  -1   3  133.79    6.69
  19  -3 -12    9.41    2.17
  19  -3 -12   10.51    1.52
  19  -3 -11  148.72    5.95
  19  -3 -11  158.96    8.66
  19  -3 -10    5.76    2.36
  19  -3 -10    7.52    1.66
  19  -3  -9   -0.70    1.83
  19  -3  -9    2.80    1.29
  19  -3  -8   23.27    3.88
  19  -3  -8   19.08    2.38
  19  -3  -7   10.61    3.05
  19  -3  -7    8.98    1.77
  19  -3  -6   -1.78    1.88
  19  -3  -5   62.92    6.18
  19  -3  -4    6.62    2.25
  19  -3  -3   75.63    6.35
  19  -3  -2    0.25    1.49
  19  -3  -1    3.40    1.74
  19  -3   0   44.86    4.58
  19  -3   1   54.00    4.75
  19  -3   2    1.65    1.31
  19  -3   3   21.68    2.59
  19  -5  -4   -1.40    1.12
  20   0 -10   51.56    4.86
  20   0  -9    0.10    1.50
  20   0  -8    0.97    1.51
  20   0  -7    0.60    1.47
  20   0  -6   96.73    6.69
  20   0  -5   -1.63    1.45
  20   0  -4    9.75    2.43
  20   0  -3   -0.23    1.21
  20   0  -2   89.18    5.87
  20   0  -1    0.76    1.04
  20   0   0   76.40    4.93
  20  -2 -11    7.97    2.05
  20  -2 -10   31.80    2.66
  20  -2 -10   34.79    4.11
  20  -2  -9   15.10    3.00
  20  -2  -9   12.29    1.81
  20  -2  -8   17.74    3.18
  20  -2  -8   21.92    2.30
  20  -2  -7   33.35    4.36
  20  -2  -6   29.44    3.75
  20  -2  -5   -0.39    1.44
  20  -2  -4   12.24    2.70
  20  -2  -3   39.29    4.44
  20  -2  -2   26.85    3.53
  20  -2  -1  116.46    6.78
  20  -2   0  537.28   14.07
  20  -2   1   60.55    4.37
  20  -4  -6    5.12    1.52
  20  -4  -5   38.83    3.72
  20  -4  -4   25.51    3.01
  20  -4  -3   22.49    2.77
  21  -1  -8    0.95    1.22
  21  -1  -7   12.54    2.43
  21  -1  -6    1.13    1.17
  21  -1  -5   99.26    6.01
  21  -1  -4  368.70   11.35
  21  -1  -3  149.88    6.98
   0   0   0    0.00    0.00




TITL Mg4C60 in C2/c
REM C2/c (#15 in standard setting)
CELL 1.54184  17.522411   9.160319  16.020807  90.0000 105.1453  90.0000
ZERR    1.00   0.001103   0.000540   0.001035   0.0000   0.0065   0.0000
LATT  7
SYMM -x, y,-z+1/2
SFAC C Mg
UNIT 1.00 1.00
TREF
HKLF 4
END
_computing_structure_solution     'SHELXT 2018/2 (Sheldrick, 2018)'
_computing_structure_solution     'SHELXT 2018/2 (Sheldrick, 2018)'
_computing_structure_solution     'SHELXT 2018/2 (Sheldrick, 2018)'
;
_shelx_hkl_checksum                81153
_olex2_submission_special_instructions  'No special instructions were received'
_oxdiff_exptl_absorpt_empirical_details
;
Empirical correction (ABSPACK) includes:
- Absorption correction using spherical harmonics
- Frame scaling
;
